@<TRIPOS>MOLECULE
ligand_2
 296 299 0 0 0
SMALL
GASTEIGER

@<TRIPOS>ATOM
      1 H          -0.9080    1.9825   -0.1171 H       1  UNK1        0.1186
      2 N           0.0000    1.5760    0.0000 N.3     2  UNL2       -0.3236
      3 C           1.2460    1.9169    0.6802 C.3     3  UNL3        0.0560
      4 C           1.6010    0.8744    1.7138 C.3     4  UNL4        0.2176
      5 O           0.8940   -0.1134    1.9126 O.3     5  HOH5       -0.2042
      6 C           1.0880    3.3029    1.3654 C.3     6  UNL6       -0.0252
      7 C           0.9170    4.4792    0.3997 C.3     7  UNL7        0.0051
      8 C          -0.3130    5.0530    0.0101 C.3     8  UNL8        0.0310
      9 C           1.8850    5.1321   -0.3341 C.3     9  UNL9        0.0103
     10 N          -0.1330    6.0645   -0.9538 N.3    10  UNL10      -0.3033
     11 C           1.2380    6.0919   -1.1527 C.3    11  UNL11       0.0491
     12 C           3.2930    4.9631   -0.3979 C.3    12  UNL12      -0.0254
     13 C           1.9960    6.9008   -2.0293 C.3    13  UNL13      -0.0122
     14 C           4.0220    5.7778   -1.2617 C.3    14  UNL14      -0.0305
     15 C           3.3840    6.7335   -2.0682 C.3    15  UNL15      -0.0293
     16 H          -0.5170    0.7498    0.2221 H      16  UNK16       0.1186
     17 H           2.0670    1.9461   -0.0603 H      17  UNK17       0.0503
     18 H           0.2380    3.2825    2.0763 H      18  UNK18       0.0288
     19 H           1.9700    3.5181    2.0003 H      19  UNK19       0.0288
     20 H          -1.2750    4.7209    0.3785 H      20  UNK20       0.0482
     21 H          -0.8510    6.6170   -1.4311 H      21  UNK21       0.1229
     22 H           3.7910    4.2227    0.2113 H      22  UNK22       0.0313
     23 H           1.5090    7.6344   -2.6492 H      23  UNK23       0.0326
     24 H           5.0950    5.6674   -1.3150 H      24  UNK24       0.0309
     25 H           3.9750    7.3530   -2.7258 H      25  UNK25       0.0310
     26 N           1.4781   -0.2728    1.5522 N.3    26  UNL26      -0.2746
     27 C           2.4251   -1.3372    1.8812 C.3    27  UNL27       0.0602
     28 C           3.3951   -1.4907    0.7327 C.3    28  UNL28       0.2180
     29 O           4.5801   -1.6347    0.9840 O.3    29  HOH29      -0.2042
     30 C           1.7201   -2.6924    2.1588 C.3    30  UNL30      -0.0332
     31 C           0.8331   -2.6211    3.4340 C.3    31  UNL31      -0.0504
     32 C          -0.0319   -3.8981    3.6086 C.3    32  UNL32      -0.0418
     33 C          -0.9929   -3.7719    4.8207 C.3    33  UNL33      -0.0196
     34 N          -1.8559   -4.9673    4.9619 N.3    34  UNL34      -0.3784
     35 H           2.9841   -1.0496    2.7890 H      35  UNK35       0.0506
     36 H           0.5211   -0.5071    1.3808 H      36  UNK36       0.1253
     37 H           2.4791   -3.4809    2.2998 H      37  UNK37       0.0282
     38 H           1.1091   -2.9619    1.2833 H      38  UNK38       0.0282
     39 H           0.1611   -1.7497    3.3777 H      39  UNK39       0.0266
     40 H           1.4731   -2.4868    4.3239 H      40  UNK40       0.0266
     41 H           0.6271   -4.7710    3.7478 H      41  UNK41       0.0277
     42 H          -0.6339   -4.0610    2.7006 H      42  UNK42       0.0277
     43 H          -1.6289   -2.8828    4.6816 H      43  UNK43       0.0409
     44 H          -0.4039   -3.6242    5.7431 H      44  UNK44       0.0409
     45 H          -2.4579   -5.1343    4.0832 H      45  UNK45       0.1004
     46 H          -2.5409   -4.8584    5.7922 H      46  UNK46       0.1004
     47 H          -1.2729   -5.8559    5.1449 H      47  UNK47       0.1004
     48 N           2.9562   -1.4816   -0.5373 N.3    48  UNL48      -0.2724
     49 C           4.1842   -1.5945   -1.3184 C.3    49  UNL49       0.0861
     50 C           4.5992   -0.2521   -1.8711 C.3    50  UNL50       0.2204
     51 O           3.9562    0.7576   -1.6603 O.3    51  HOH51      -0.2041
     52 C           4.0072   -2.6355   -2.4744 C.3    52  UNL52       0.0720
     53 O           3.7282   -3.9258   -1.9445 O.3    53  HOH53      -0.3904
     54 C           5.2292   -2.8521   -3.3937 C.3    54  UNL54      -0.0373
     55 H           2.4492   -0.5379   -0.4012 H      55  UNK55       0.1253
     56 H           4.9932   -1.9393   -0.6489 H      56  UNK56       0.0531
     57 H           3.1482   -2.3195   -3.1029 H      57  UNK57       0.0607
     58 H           3.5622   -4.4963   -2.7006 H      58  UNK58       0.2098
     59 H           5.0362   -3.6186   -4.1684 H      59  UNK59       0.0255
     60 H           5.5132   -1.9376   -3.9415 H      60  UNK60       0.0255
     61 H           6.1192   -3.1809   -2.8231 H      61  UNK61       0.0255
     62 N           4.4343    0.7856   -1.3662 N.3    62  UNL62      -0.2745
     63 C           5.3673    1.9051   -1.2562 C.3    63  UNL63       0.0610
     64 C           6.3453    1.6200   -0.1396 C.3    64  UNL64       0.2180
     65 O           7.5293    1.8591   -0.3114 O.3    65  HOH65      -0.2042
     66 C           4.6563    3.2542   -0.9392 C.3    66  UNL66      -0.0242
     67 C           3.7023    3.7286   -2.0708 C.3    67  UNL67      -0.0050
     68 S           4.5353    3.8816   -3.6890 S.3    68  UNL68      -0.1641
     69 C           5.6913    5.2594   -3.3932 C.3    69  UNL69      -0.0181
     70 H           5.9243    1.9955   -2.2038 H      70  UNK70       0.0506
     71 H           3.4573    0.9452   -1.2209 H      71  UNK71       0.1253
     72 H           5.4153    4.0335   -0.7630 H      72  UNK72       0.0290
     73 H           4.0763    3.1410   -0.0093 H      73  UNK73       0.0290
     74 H           3.2693    4.7062   -1.8036 H      74  UNK74       0.0377
     75 H           2.8713    3.0199   -2.2063 H      75  UNK75       0.0377
     76 H           5.1633    6.1065   -2.9345 H      76  UNK76       0.0340
     77 H           6.1063    5.5767   -4.3636 H      77  UNK77       0.0340
     78 H           6.5143    4.9322   -2.7457 H      78  UNK78       0.0340
     79 N           5.9124    1.2097    1.0102 N.3    79  UNL79      -0.2726
     80 C           7.1374    1.0503    1.7884 C.3    80  UNL80       0.0837
     81 C           7.5624   -0.3958    1.8389 C.3    81  UNL81       0.2228
     82 O           6.9204   -1.2853    1.2787 O.3    82  HOH82      -0.2038
     83 C           6.9684    1.6460    3.2084 C.3    83  UNL83       0.0639
     84 O           6.0724    0.8880    4.0273 O.3    84  HOH84      -0.3933
     85 H           5.4134    0.3700    0.5514 H      85  UNK85       0.1253
     86 H           7.9434    1.6040    1.2702 H      86  UNK86       0.0529
     87 H           7.9534    1.6861    3.7153 H      87  UNK87       0.0574
     88 H           6.6284    2.6984    3.1648 H      88  UNK88       0.0574
     89 H           5.2054    0.9226    3.6131 H      89  UNK89       0.2095
     90 N           7.3905   -1.2043    1.0166 N.3    90  UNL90      -0.2603
     91 C           8.8015   -1.7152    0.7375 C.3    91  UNL91       0.0631
     92 C           9.1525   -1.8155   -0.7440 C.3    92  UNL92       0.2181
     93 O           8.2775   -1.4780   -1.5806 O.3    93  HOH93      -0.2042
     94 C           8.8725   -3.1151    1.3321 C.3    94  UNL94      -0.0319
     95 C           7.4315   -3.5991    1.1018 C.3    95  UNL95      -0.0385
     96 C           6.5785   -2.3712    1.4378 C.3    96  UNL96       0.0022
     97 H           9.5295   -1.0544    1.1861 H      97  UNK97       0.0508
     98 H           9.5505   -3.7357    0.7226 H      98  UNK98       0.0282
     99 H           9.0625   -3.0418    2.4103 H      99  UNK99       0.0282
    100 H           7.1635   -3.7258    0.0413 H     100  UNK100      0.0278
    101 H           7.2765   -4.4473    1.7819 H     101  UNK101      0.0278
    102 H           5.6405   -2.3986    0.8568 H     102  UNK102      0.0428
    103 H           6.4235   -2.3242    2.5265 H     103  UNK103      0.0428
    104 N           8.8686   -0.7928   -1.3621 N.3   104  UNL104     -0.2746
    105 C           9.8156   -0.1917   -2.3000 C.3   105  UNL105      0.0602
    106 C          10.7856    0.6665   -1.5214 C.3   106  UNL106      0.2179
    107 O          11.9706    0.6144   -1.8064 O.3   107  HOH107     -0.2042
    108 C           9.1106    0.6648   -3.3864 C.3   108  UNL108     -0.0332
    109 C           8.2236   -0.2122   -4.3148 C.3   109  UNL109     -0.0504
    110 C           7.3586    0.6510   -5.2720 C.3   110  UNL110     -0.0418
    111 C           6.3976   -0.2272   -6.1168 C.3   111  UNL111     -0.0196
    112 N           5.5346    0.5951   -6.9957 N.3   112  UNL112     -0.3784
    113 H          10.3746   -0.9970   -2.8083 H     113  UNK113      0.0506
    114 H           7.9116   -0.5032   -1.3823 H     114  UNK114      0.1253
    115 H           9.8696    1.1765   -4.0027 H     115  UNK115      0.0282
    116 H           8.4996    1.4356   -2.8912 H     116  UNK116      0.0282
    117 H           7.5516   -0.8418   -3.7097 H     117  UNK117      0.0266
    118 H           8.8636   -0.8888   -4.9082 H     118  UNK118      0.0266
    119 H           8.0176    1.2283   -5.9414 H     119  UNK119      0.0277
    120 H           6.7566    1.3612   -4.6832 H     120  UNK120      0.0277
    121 H           5.7616   -0.8169   -5.4370 H     121  UNK121      0.0409
    122 H           6.9866   -0.9351   -6.7263 H     122  UNK122      0.0409
    123 H           4.9326    1.2895   -6.4320 H     123  UNK123      0.1004
    124 H           4.8496   -0.0237   -7.5600 H     124  UNK124      0.1004
    125 H           6.1176    1.1561   -7.7088 H     125  UNK125      0.1004
    126 N          10.3467    1.4787   -0.5451 N.3   126  UNL126     -0.2743
    127 C          11.5957    2.0169   -0.0145 C.3   127  UNL127      0.0628
    128 C          11.9087    1.4261    1.3387 C.3   128  UNL128      0.2182
    129 O          13.1147    1.8802    1.9586 O.3   129  HOH129     -0.2041
    130 C          11.5707    3.5989    0.0245 C.3   130  UNL130     -0.0244
    131 C          11.1787    4.2797   -1.3247 C.3   131  UNL131     -0.0518
    132 C          12.9227    4.2151    0.5032 C.3   132  UNL132     -0.0609
    133 C          10.8297    5.7814   -1.2455 C.3   133  UNL133     -0.0650
    134 H           9.7597    0.7540   -0.0017 H     134  UNK134      0.1253
    135 H          12.4107    1.6999   -0.6912 H     135  UNK135      0.0508
    136 H          10.7927    3.8851    0.7666 H     136  UNK136      0.0314
    137 H          11.9667    4.1100   -2.0836 H     137  UNK137      0.0266
    138 H          10.2817    3.7829   -1.7404 H     138  UNK138      0.0266
    139 H          12.8787    5.3154    0.5807 H     139  UNK139      0.0233
    140 H          13.2217    3.8785    1.5124 H     140  UNK140      0.0233
    141 H          13.7547    3.9738   -0.1837 H     141  UNK141      0.0233
    142 H          10.4937    6.1639   -2.2304 H     142  UNK142      0.0230
    143 H          10.0137    5.9747   -0.5283 H     143  UNK143      0.0230
    144 H          11.6927    6.4010   -0.9425 H     144  UNK144      0.0230
    145 N          11.8248    0.2810    1.5507 N.3   145  UNL145     -0.2743
    146 C          13.0708   -0.3346    2.0002 C.3   146  UNL146      0.0625
    147 C          13.4038   -1.5506    1.1691 C.3   147  UNL147      0.2182
    148 O          12.6788   -1.9301    0.2406 O.3   148  HOH148     -0.2041
    149 C          12.9618   -0.7110    3.5301 C.3   149  UNL149     -0.0270
    150 C          12.8148    0.5128    4.4687 C.3   150  UNL150     -0.0611
    151 C          14.1338   -1.5452    4.1208 C.3   151  UNL151     -0.0611
    152 H          11.2528   -0.1201    0.7271 H     152  UNK152      0.1253
    153 H          13.8948    0.3891    1.8597 H     153  UNK153      0.0508
    154 H          12.0448   -1.3276    3.6511 H     154  UNK154      0.0312
    155 H          13.7168    1.1513    4.4670 H     155  UNK155      0.0233
    156 H          11.9598    1.1497    4.1829 H     156  UNK156      0.0233
    157 H          12.6308    0.2056    5.5162 H     157  UNK157      0.0233
    158 H          15.1068   -1.0244    4.0329 H     158  UNK158      0.0233
    159 H          13.9828   -1.7774    5.1933 H     159  UNK159      0.0233
    160 H          14.2438   -2.5281    3.6268 H     160  UNK160      0.0233
    161 N          13.3029   -1.5760    0.0084 N.3   161  UNL161     -0.2746
    162 C          14.2329   -2.1198   -0.9791 C.3   162  UNL162      0.0605
    163 C          15.2139   -1.0309   -1.3530 C.3   163  UNL163      0.2179
    164 O          16.3989   -1.3082   -1.4353 O.3   164  HOH164     -0.2042
    165 C          13.5289   -2.6299   -2.2683 C.3   165  UNL165     -0.0309
    166 C          12.4829   -3.7648   -2.0358 C.3   166  UNL166     -0.0452
    167 C          11.8089   -4.1385   -3.3858 C.3   167  UNL167     -0.0626
    168 C          13.1089   -5.0342   -1.3916 C.3   168  UNL168     -0.0626
    169 H          14.8029   -2.9474   -0.5263 H     169  UNK169      0.0506
    170 H          12.3489   -1.4178   -0.2517 H     170  UNK170      0.1253
    171 H          14.3019   -2.9967   -2.9627 H     171  UNK171      0.0284
    172 H          13.0259   -1.7737   -2.7424 H     172  UNK172      0.0284
    173 H          11.6849   -3.4022   -1.3656 H     173  UNK173      0.0296
    174 H          11.3329   -3.2523   -3.8371 H     174  UNK174      0.0232
    175 H          11.0329   -4.9031   -3.2383 H     175  UNK175      0.0232
    176 H          12.5569   -4.5309   -4.0932 H     176  UNK176      0.0232
    177 H          13.9709   -5.3781   -1.9857 H     177  UNK177      0.0232
    178 H          12.3679   -5.8475   -1.3488 H     178  UNK178      0.0232
    179 H          13.4379   -4.8355   -0.3619 H     179  UNK179      0.0232
    180 N          14.7810    0.2645   -1.5536 N.3   180  UNL180     -0.2746
    181 C          15.6910    1.3490   -1.9193 C.3   181  UNL181      0.0604
    182 C          16.7070    1.5359   -0.8176 C.3   182  UNL182      0.2179
    183 O          17.8830    1.6756   -1.1174 O.3   183  HOH183     -0.2042
    184 C          14.9480    2.6868   -2.1912 C.3   184  UNL184     -0.0280
    185 C          14.0090    2.5866   -3.4263 C.3   185  UNL185      0.0140
    186 C          13.2420    3.8605   -3.6851 C.3   186  UNL186      0.2929
    187 O          13.4650    4.8713   -2.9676 O.3   187  HOH187     -0.1876
    188 O          12.3990    3.8574   -4.6204 O.3   188  HOH188     -0.1876
    189 H          16.2250    1.0688   -2.8427 H     189  UNK189      0.0506
    190 H          13.8100    0.4638   -1.4202 H     190  UNK190      0.1253
    191 H          15.6920    3.4776   -2.3799 H     191  UNK191      0.0283
    192 H          14.3670    2.9646   -1.2997 H     192  UNK192      0.0283
    193 H          13.2740    1.7792   -3.2908 H     193  UNK193      0.0321
    194 H          14.6070    2.3582   -4.3203 H     194  UNK194      0.0321
    195 N          16.2591    1.4844    0.5294 N.3   195  UNL195     -0.2744
    196 C          17.5361    1.4698    1.2906 C.3   196  UNL196      0.0655
    197 C          17.9161    0.1818    2.1032 C.3   197  UNL197      0.2181
    198 O          17.2641   -0.8365    2.1264 O.3   198  HOH198     -0.2042
    199 C          17.4741    2.7321    2.1716 C.3   199  UNL199      0.0322
    200 C          18.8221    3.2156    2.7728 C.3   200  UNL200      0.2944
    201 O          19.8461    2.7413    2.2744 O.3   201  HOH201     -0.1875
    202 O          18.7051    4.0409    3.6793 O.3   202  HOH202     -0.1875
    203 H          15.7991    0.5870    0.5825 H     203  UNK203      0.1253
    204 H          18.3451    1.6068    0.5460 H     204  UNK204      0.0507
    205 H          17.1171    3.5847    1.5690 H     205  UNK205      0.0337
    206 H          16.7401    2.6223    2.9886 H     206  UNK206      0.0337
    207 N          17.7372   -0.7783    1.3704 N.3   207  UNL207     -0.2746
    208 C          18.6842   -1.8914    1.3227 C.3   208  UNL208      0.0602
    209 C          19.6542   -1.6502    0.1894 C.3   209  UNL209      0.2179
    210 O          20.8392   -1.8702    0.3777 O.3   210  HOH210     -0.2042
    211 C          17.9792   -3.2611    1.1289 C.3   211  UNL211     -0.0332
    212 C          17.0922   -3.6223    2.3540 C.3   212  UNL212     -0.0504
    213 C          16.2272   -4.8838    2.0895 C.3   213  UNL213     -0.0418
    214 C          15.2662   -5.1721    3.2735 C.3   214  UNL214     -0.0196
    215 N          14.4032   -6.3455    3.0049 N.3   215  UNL215     -0.3784
    216 H          19.2432   -1.9255    2.2744 H     216  UNK216      0.0506
    217 H          16.7802   -0.9415    1.1303 H     217  UNK217      0.1253
    218 H          18.7382   -4.0512    0.9968 H     218  UNK218      0.0282
    219 H          17.3682   -3.2209    0.2138 H     219  UNK219      0.0282
    220 H          16.4202   -2.7826    2.5937 H     220  UNK220      0.0266
    221 H          17.7322   -3.7948    3.2372 H     221  UNK221      0.0266
    222 H          16.8862   -5.7527    1.9273 H     222  UNK222      0.0277
    223 H          15.6252   -4.7322    1.1795 H     223  UNK223      0.0277
    224 H          14.6302   -4.2880    3.4411 H     224  UNK224      0.0409
    225 H          15.8552   -5.3428    4.1919 H     225  UNK225      0.0409
    226 H          13.8012   -6.2076    2.1212 H     226  UNK226      0.1004
    227 H          13.7182   -6.5218    3.8236 H     227  UNK227      0.1004
    228 H          14.9862   -7.2439    2.8788 H     228  UNK228      0.1004
    229 N          19.2153   -1.2150   -1.0038 N.3   229  UNL229     -0.2746
    230 C          20.1473   -0.9332   -2.0934 C.3   230  UNL230      0.0604
    231 C          21.1603    0.0841   -1.6258 C.3   231  UNL231      0.2179
    232 O          22.3493   -0.1486   -1.7788 O.3   232  HOH232     -0.2042
    233 C          19.4493   -0.3799   -3.3676 C.3   233  UNL233     -0.0291
    234 C          18.6223   -1.4518   -4.1260 C.3   234  UNL234     -0.0015
    235 C          17.6813   -0.9075   -5.1832 C.3   235  UNL235      0.1981
    236 O          16.7073   -1.5912   -5.4651 O.3   236  HOH236     -0.2062
    237 N          17.9093    0.2766   -5.7984 N.3   237  UNL237     -0.2972
    238 H          20.6743   -1.8712   -2.3410 H     238  UNK238      0.0506
    239 H          18.2353   -1.1204   -1.1687 H     239  UNK239      0.1253
    240 H          20.2273   -0.0013   -4.0470 H     240  UNK240      0.0283
    241 H          18.7973    0.4630   -3.0915 H     241  UNK241      0.0283
    242 H          18.0173   -2.0041   -3.3945 H     242  UNK242      0.0309
    243 H          19.3053   -2.1733   -4.6005 H     243  UNK243      0.0309
    244 H          18.7033    0.8491   -5.5929 H     244  UNK244      0.1211
    245 H          17.2603    0.5967   -6.4906 H     245  UNK245      0.1211
    246 N          20.6934    1.1989   -1.0230 N.3   246  UNL246     -0.2749
    247 C          21.6564    2.2112   -0.6034 C.3   247  UNL247      0.0574
    248 C          22.6564    1.5738    0.3299 C.3   248  UNL248      0.2176
    249 O          23.8464    1.7380    0.1177 O.3   249  HOH249     -0.2042
    250 C          20.9784    3.4070    0.1180 C.3   250  UNL250     -0.0454
    251 H          22.1714    2.5975   -1.4989 H     251  UNK251      0.0503
    252 H          19.7244    1.3346   -0.8135 H     252  UNK252      0.1253
    253 H          20.4594    3.0757    1.0282 H     253  UNK253      0.0246
    254 H          20.2444    3.8819   -0.5525 H     254  UNK254      0.0246
    255 H          21.7344    4.1569    0.3987 H     255  UNK255      0.0246
    256 N          22.1715    0.8000    1.3578 N.3   256  UNL256     -0.2746
    257 C          23.1015    0.2202    2.3246 C.3   257  UNL257      0.0605
    258 C          24.0825   -0.6507    1.5716 C.3   258  UNL258      0.2179
    259 O          25.2675   -0.5824    1.8526 O.3   259  HOH259     -0.2042
    260 C          22.3975   -0.6374    3.4140 C.3   260  UNL260     -0.0309
    261 C          21.3515    0.1345    4.2779 C.3   261  UNL261     -0.0452
    262 C          20.6775   -0.8443    5.2799 C.3   262  UNL262     -0.0626
    263 C          21.9775    1.3298    5.0509 C.3   263  UNL263     -0.0626
    264 H          23.6715    1.0279    2.8120 H     264  UNK264      0.0506
    265 H          21.2175    0.4957    1.3520 H     265  UNK265      0.1253
    266 H          23.1705   -1.0530    4.0803 H     266  UNK266      0.0284
    267 H          21.8945   -1.4779    2.9125 H     267  UNK267      0.0284
    268 H          20.5535    0.5313    3.6273 H     268  UNK268      0.0296
    269 H          20.2015   -1.6801    4.7411 H     269  UNK269      0.0232
    270 H          19.9015   -0.3322    5.8666 H     270  UNK270      0.0232
    271 H          21.4255   -1.2583    5.9749 H     271  UNK271      0.0232
    272 H          22.8395    0.9893    5.6470 H     272  UNK272      0.0232
    273 H          21.2365    1.7759    5.7322 H     273  UNK273      0.0232
    274 H          22.3065    2.1198    4.3611 H     274  UNK274      0.0232
    275 N          23.6496   -1.4758    0.5530 N.3   275  UNL275     -0.2736
    276 C          24.8966   -2.0248    0.0273 C.3   276  UNL276      0.0730
    277 C          25.2246   -1.4278   -1.3208 C.3   277  UNL277      0.2744
    278 O          24.4796   -0.5714   -1.8717 O.3   278  HOH278     -0.1891
    279 C          24.7786   -3.5720   -0.1197 C.3   279  UNL279     -0.0254
    280 C          24.4446   -4.3580    1.1570 C.3   280  UNL280     -0.0147
    281 C          23.1066   -4.5700    1.5068 C.3   281  UNL281     -0.0275
    282 C          25.4586   -4.8117    2.0032 C.3   282  UNL282     -0.0275
    283 C          22.7866   -5.2081    2.7014 C.3   283  UNL283     -0.0307
    284 C          25.1386   -5.4629    3.1898 C.3   284  UNL284     -0.0307
    285 C          23.8026   -5.6572    3.5428 C.3   285  UNL285     -0.0309
    286 H          23.0726   -0.7409    0.0100 H     286  UNK286      0.1253
    287 H          25.7196   -1.7730    0.7236 H     287  UNK287      0.0517
    288 H          24.0246   -3.8135   -0.8990 H     288  UNK288      0.0288
    289 H          25.7216   -3.9732   -0.5417 H     289  UNK289      0.0288
    290 H          22.3116   -4.1958    0.8746 H     290  UNK290      0.0312
    291 H          26.4956   -4.6457    1.7460 H     291  UNK291      0.0312
    292 H          21.7516   -5.3404    2.9767 H     292  UNK292      0.0309
    293 H          25.9256   -5.8041    3.8484 H     293  UNK293      0.0309
    294 H          23.5526   -6.1494    4.4694 H     294  UNK294      0.0309
    295 O          25.1666   -0.4312   -1.5564 O.3   295  HOH295     -0.3574
    296 H          25.8576    0.1040   -1.9342 H     296  UNK296      0.2131
@<TRIPOS>BOND
     1     1     2    1
     2    25    15    1
     3    23    13    1
     4    15    13    1
     5    15    14    2
     6    13    11    2
     7    21    10    1
     8    24    14    1
     9    14    12    1
    10    11    10    1
    11    11     9    1
    12    10     8    1
    13    12     9    2
    14    12    22    1
    15     9     7    1
    16    17     3    1
    17     2    16    1
    18     2     3    1
    19     8    20    1
    20     8     7    2
    21     7     6    1
    22     3     6    1
    23     3     4    1
    24     6    19    1
    25     6    18    1
    26     4     5    2
    27     4    26    1
    28    26    36    1
    29    26    27    1
    30    35    27    1
    31    27    28    1
    32    27    30    1
    33    39    31    1
    34    28    29    2
    35    40    31    1
    36    31    30    1
    37    31    32    1
    38    43    33    1
    39    30    38    1
    40    30    37    1
    41    44    33    1
    42    33    32    1
    43    33    34    1
    44    32    42    1
    45    32    41    1
    46    46    34    1
    47    34    45    1
    48    34    47    1
    49    28    48    1
    50    56    49    1
    51    48    55    1
    52    48    49    1
    53    53    58    1
    54    53    52    1
    55    49    52    1
    56    49    50    1
    57    52    57    1
    58    52    54    1
    59    61    54    1
    60    50    51    2
    61    54    59    1
    62    54    60    1
    63    50    62    1
    64    62    71    1
    65    62    63    1
    66    70    63    1
    67    63    64    1
    68    63    66    1
    69    64    65    2
    70    75    67    1
    71    68    67    1
    72    68    69    1
    73    67    66    1
    74    67    74    1
    75    66    73    1
    76    66    72    1
    77    77    69    1
    78    69    78    1
    79    69    76    1
    80    64    79    1
    81    86    80    1
    82    79    85    1
    83    79    80    1
    84    80    83    1
    85    80    81    1
    86    88    83    1
    87    83    87    1
    88    83    84    1
    89    81    82    2
    90    89    84    1
    91    81    90    1
    92   103    96    1
    93    97    91    1
    94    90    96    1
    95    90    91    1
    96    99    94    1
    97    96   102    1
    98    96    95    1
    99    91    94    1
   100    91    92    1
   101    94    95    1
   102    94    98    1
   103    95   101    1
   104    95   100    1
   105    92    93    2
   106    92   104    1
   107   104   114    1
   108   104   105    1
   109   113   105    1
   110   105   106    1
   111   105   108    1
   112   117   109    1
   113   106   107    2
   114   118   109    1
   115   109   108    1
   116   109   110    1
   117   121   111    1
   118   108   116    1
   119   108   115    1
   120   122   111    1
   121   111   110    1
   122   111   112    1
   123   110   120    1
   124   110   119    1
   125   124   112    1
   126   112   123    1
   127   112   125    1
   128   106   126    1
   129   137   131    1
   130   138   131    1
   131   135   127    1
   132   126   134    1
   133   126   127    1
   134   142   133    1
   135   131   133    1
   136   131   130    1
   137   127   130    1
   138   127   128    1
   139   133   144    1
   140   133   143    1
   141   141   132    1
   142   130   132    1
   143   130   136    1
   144   128   129    2
   145   132   139    1
   146   132   140    1
   147   128   145    1
   148   156   150    1
   149   155   150    1
   150   153   146    1
   151   145   152    1
   152   145   146    1
   153   150   157    1
   154   150   149    1
   155   146   149    1
   156   146   147    1
   157   149   154    1
   158   149   151    1
   159   158   151    1
   160   147   148    2
   161   151   159    1
   162   151   160    1
   163   147   161    1
   164   161   170    1
   165   161   162    1
   166   179   168    1
   167   169   162    1
   168   162   163    1
   169   162   165    1
   170   163   164    2
   171   178   168    1
   172   173   166    1
   173   168   177    1
   174   168   166    1
   175   166   165    1
   176   166   167    1
   177   165   172    1
   178   165   171    1
   179   175   167    1
   180   167   174    1
   181   167   176    1
   182   163   180    1
   183   180   190    1
   184   180   181    1
   185   189   181    1
   186   181   182    1
   187   181   184    1
   188   193   185    1
   189   182   183    2
   190   194   185    1
   191   185   184    1
   192   185   186    1
   193   184   192    1
   194   184   191    1
   195   188   186    2
   196   186   187    1
   197   182   195    1
   198   204   196    1
   199   195   203    1
   200   195   196    1
   201   205   199    1
   202   196   199    1
   203   196   197    1
   204   199   200    1
   205   199   206    1
   206   201   200    2
   207   200   202    1
   208   197   198    2
   209   197   207    1
   210   207   217    1
   211   207   208    1
   212   216   208    1
   213   208   209    1
   214   208   211    1
   215   220   212    1
   216   209   210    2
   217   221   212    1
   218   212   211    1
   219   212   213    1
   220   224   214    1
   221   211   219    1
   222   211   218    1
   223   225   214    1
   224   214   213    1
   225   214   215    1
   226   213   223    1
   227   213   222    1
   228   227   215    1
   229   215   226    1
   230   215   228    1
   231   209   229    1
   232   229   239    1
   233   229   230    1
   234   238   230    1
   235   230   231    1
   236   230   233    1
   237   232   231    2
   238   242   234    1
   239   243   234    1
   240   234   233    1
   241   234   235    1
   242   233   241    1
   243   233   240    1
   244   236   235    2
   245   235   237    1
   246   237   244    1
   247   237   245    1
   248   231   246    1
   249   246   252    1
   250   246   247    1
   251   251   247    1
   252   247   248    1
   253   247   250    1
   254   249   248    2
   255   254   250    1
   256   250   253    1
   257   250   255    1
   258   248   256    1
   259   256   265    1
   260   256   257    1
   261   274   263    1
   262   264   257    1
   263   257   258    1
   264   257   260    1
   265   258   259    2
   266   273   263    1
   267   268   261    1
   268   263   272    1
   269   263   261    1
   270   261   260    1
   271   261   262    1
   272   260   267    1
   273   260   266    1
   274   270   262    1
   275   262   269    1
   276   262   271    1
   277   258   275    1
   278   294   285    1
   279   293   284    1
   280   285   284    2
   281   285   283    1
   282   284   282    1
   283   292   283    1
   284   283   281    2
   285   282   291    1
   286   282   280    2
   287   287   276    1
   288   275   286    1
   289   275   276    1
   290   281   280    1
   291   281   290    1
   292   280   279    1
   293   276   279    1
   294   276   277    1
   295   279   289    1
   296   279   288    1
   297   277   278    2
   298   277   295    1
   299   295   296    1
