@<TRIPOS>MOLECULE
ligand_5
 268 272 0 0 0
SMALL
GASTEIGER

@<TRIPOS>ATOM
      1 H          -0.9080    1.9825   -0.1171 H       1  UNK1        0.1223
      2 N           0.0000    1.5760    0.0000 N.3     2  UNL2       -0.3093
      3 C           1.4110    1.7863    0.5428 C.3     3  UNL3        0.0579
      4 C           1.7620    0.9074    1.7396 C.3     4  UNL4        0.2178
      5 O           0.8870    0.1099    2.1612 O.3     5  HOH5       -0.2042
      6 C           1.4820    3.2397    0.9915 C.3     6  UNL6       -0.0322
      7 C           0.0410    3.4610    1.4796 C.3     7  UNL7       -0.0389
      8 C          -0.8120    2.7393    0.4308 C.3     8  UNL8       -0.0037
      9 H           2.1390    1.5708   -0.2262 H       9  UNK9        0.0505
     10 H           2.1600    3.3208    1.8575 H      10  UNK10       0.0282
     11 H           1.6720    3.8791    0.1203 H      11  UNK11       0.0282
     12 H          -0.2270    2.8737    2.3717 H      12  UNK12       0.0278
     13 H          -0.1140    4.5478    1.5071 H      13  UNK13       0.0278
     14 H          -1.7500    2.3855    0.8925 H      14  UNK14       0.0424
     15 H          -0.9670    3.4058   -0.4314 H      15  UNK15       0.0424
     16 N           1.4781   -0.2728    1.5522 N.3    16  UNL16      -0.2743
     17 C           2.7271   -1.0021    1.7504 C.3    17  UNL17       0.0628
     18 C           3.0401   -1.8744    0.5590 C.3    18  UNL18       0.2180
     19 O           4.2461   -2.6386    0.6397 O.3    19  HOH19      -0.2042
     20 C           2.7021   -1.8316    3.0980 C.3    20  UNL20      -0.0244
     21 C           2.3101   -1.0080    4.3651 C.3    21  UNL21      -0.0518
     22 C           4.0541   -2.5553    3.3898 C.3    22  UNL22      -0.0609
     23 C           1.9611   -1.8319    5.6231 C.3    23  UNL23      -0.0650
     24 H           0.8911   -0.3779    0.6525 H      24  UNK24       0.1253
     25 H           3.5421   -0.2578    1.8168 H      25  UNK25       0.0508
     26 H           1.9241   -2.6169    2.9721 H      26  UNK26       0.0314
     27 H           3.0981   -0.2669    4.6003 H      27  UNK27       0.0266
     28 H           1.4131   -0.3989    4.1448 H      28  UNK28       0.0266
     29 H           4.0101   -3.1758    4.3017 H      29  UNK29       0.0233
     30 H           4.3531   -3.2583    2.5912 H      30  UNK30       0.0233
     31 H           4.8861   -1.8403    3.5267 H      31  UNK31       0.0233
     32 H           1.6251   -1.1732    6.4492 H      32  UNK32       0.0230
     33 H           1.1451   -2.5491    5.4294 H      33  UNK33       0.0230
     34 H           2.8241   -2.4055    6.0062 H      34  UNK34       0.0230
     35 N           2.9562   -1.4816   -0.5373 N.3    35  UNL35      -0.2774
     36 C           4.2042   -1.5550   -1.2909 C.3    36  UNL36       0.0487
     37 C           4.5252   -0.2275   -1.9367 C.3    37  UNL37       0.2148
     38 O           3.7952    0.7504   -1.8096 O.3    38  HOH38      -0.2045
     39 H           2.3752   -0.5728   -0.4794 H      39  UNK39       0.1250
     40 H           5.0372   -1.8458   -0.6258 H      40  UNK40       0.0469
     41 H           4.1332   -2.3322   -2.0741 H      41  UNK41       0.0469
     42 N           4.4343    0.7856   -1.3662 N.3    42  UNL42      -0.2746
     43 C           5.6833    1.5388   -1.3040 C.3    43  UNL43       0.0628
     44 C           5.9963    1.9527    0.1135 C.3    44  UNL44       0.2182
     45 O           7.2023    2.6986    0.2981 O.3    45  HOH45      -0.2041
     46 C           5.6583    2.7781   -2.2880 C.3    46  UNL46      -0.0244
     47 C           5.2663    2.4357   -3.7600 C.3    47  UNL47      -0.0518
     48 C           7.0103    3.5578   -2.3156 C.3    48  UNL48      -0.0609
     49 C           4.9173    3.6392   -4.6617 C.3    49  UNL49      -0.0650
     50 H           3.8473    0.5777   -0.4846 H      50  UNK50       0.1253
     51 H           6.4983    0.8617   -1.6201 H      51  UNK51       0.0508
     52 H           4.8803    3.4734   -1.9019 H      52  UNK52       0.0314
     53 H           6.0543    1.8192   -4.2337 H      53  UNK53       0.0266
     54 H           4.3693    1.7880   -3.7606 H      54  UNK54       0.0266
     55 H           6.9663    4.4520   -2.9614 H      55  UNK55       0.0233
     56 H           7.3093    3.9464   -1.3252 H      56  UNK56       0.0233
     57 H           7.8423    2.9324   -2.6881 H      57  UNK57       0.0233
     58 H           4.5813    3.3015   -5.6629 H      58  UNK58       0.0230
     59 H           4.1013    4.2473   -4.2351 H      59  UNK59       0.0230
     60 H           5.7803    4.3090   -4.8263 H      60  UNK60       0.0230
     61 N           5.9124    1.2097    1.0102 N.3    61  UNL61      -0.2738
     62 C           7.1524    1.0351    1.7625 C.3    62  UNL62       0.0690
     63 C           7.5164   -0.4246    1.8725 C.3    63  UNL63       0.2187
     64 O           8.7174   -0.7195    2.5899 O.3    64  HOH64      -0.2041
     65 C           6.9884    1.7073    3.1399 C.3    65  UNL65       0.0104
     66 S           8.5474    1.6846    4.0518 S.3    66  UNL66      -0.1766
     67 H           5.3654    0.3710    0.6065 H      67  UNK67       0.1253
     68 H           7.9674    1.5363    1.2091 H      68  UNK68       0.0514
     69 H           6.6714    2.7613    3.0361 H      69  UNK69       0.0390
     70 H           6.2024    1.2077    3.7440 H      70  UNK70       0.0390
     71 H           8.2174    0.7220    4.9092 H      71  UNK71       0.1017
     72 N           7.3905   -1.2043    1.0166 N.3    72  UNL72      -0.2743
     73 C           8.6365   -1.9008    0.7070 C.3    73  UNL73       0.0625
     74 C           8.9695   -1.7865   -0.7615 C.3    74  UNL74       0.2182
     75 O           8.2445   -1.1707   -1.5532 O.3    75  HOH75      -0.2041
     76 C           8.5275   -3.4147    1.1433 C.3    76  UNL76      -0.0270
     77 C           8.3805   -3.6183    2.6720 C.3    77  UNL77      -0.0611
     78 C           9.6995   -4.3426    0.7145 C.3    78  UNL78      -0.0611
     79 H           6.8185   -0.6903    0.2583 H      79  UNK79       0.1253
     80 H           9.4605   -1.4183    1.2643 H      80  UNK80       0.0508
     81 H           7.6105   -3.8270    0.6691 H      81  UNK81       0.0312
     82 H           9.2825   -3.2986    3.2248 H      82  UNK82       0.0233
     83 H           7.5255   -3.0530    3.0818 H      83  UNK83       0.0233
     84 H           8.1965   -4.6795    2.9278 H      84  UNK84       0.0233
     85 H          10.6725   -4.0068    1.1222 H      85  UNK85       0.0233
     86 H           9.5485   -5.3881    1.0478 H      86  UNK86       0.0233
     87 H           9.8095   -4.4043   -0.3838 H      87  UNK87       0.0233
     88 N           8.8686   -0.7928   -1.3621 N.3    88  UNL88      -0.2746
     89 C          10.0986   -0.3783   -2.0311 C.3    89  UNL89       0.0610
     90 C          10.5066    1.0112   -1.5991 C.3    90  UNL90       0.2206
     91 O           9.8496    1.6605   -0.7857 O.3    91  HOH91      -0.2039
     92 C           9.9116   -0.3665   -3.5763 C.3    92  UNL92      -0.0265
     93 C           9.5756   -1.7042   -4.2404 C.3    93  UNL93      -0.0146
     94 C          10.5726   -2.6602   -4.4669 C.3    94  UNL94      -0.0249
     95 C           8.2576   -1.9844   -4.6144 C.3    95  UNL95      -0.0249
     96 C          10.2516   -3.8784   -5.0582 C.3    96  UNL96       0.0003
     97 C           7.9386   -3.2053   -5.2029 C.3    97  UNL97       0.0003
     98 C           8.9366   -4.1504   -5.4243 C.3    98  UNL98       0.1020
     99 O           8.6246   -5.3498   -6.0004 O.3    99  HOH99      -0.3851
    100 H           8.3566   -0.1535   -0.6583 H     100  UNK100      0.1253
    101 H          10.9106   -1.0738   -1.7509 H     101  UNK101      0.0506
    102 H           9.1406    0.3855   -3.8477 H     102  UNK102      0.0287
    103 H          10.8296    0.0238   -4.0589 H     103  UNK103      0.0287
    104 H          11.5956   -2.4566   -4.1818 H     104  UNK104      0.0313
    105 H           7.4746   -1.2569   -4.4354 H     105  UNK105      0.0313
    106 H          11.0186   -4.6163   -5.2302 H     106  UNK106      0.0336
    107 H           6.9156   -3.4076   -5.4822 H     107  UNK107      0.0336
    108 H           7.6836   -5.3609   -6.1851 H     108  UNK108      0.2103
    109 N          10.3467    1.4787   -0.5451 N.3   109  UNL109     -0.2603
    110 C          11.7577    1.8638   -0.1086 C.3   110  UNL110      0.0631
    111 C          12.1087    1.4531    1.3183 C.3   111  UNL111      0.2182
    112 O          11.2337    0.8506    1.9898 O.3   112  HOH112     -0.2042
    113 C          11.8287    3.3827   -0.1903 C.3   113  UNL113     -0.0319
    114 C          10.3877    3.7591    0.1912 C.3   114  UNL114     -0.0385
    115 C           9.5347    2.7193   -0.5433 C.3   115  UNL115      0.0022
    116 H          12.4857    1.3956   -0.7555 H     116  UNK116      0.0508
    117 H          12.5067    3.7583    0.5942 H     117  UNK117      0.0282
    118 H          12.0187    3.6813   -1.2289 H     118  UNK118      0.0282
    119 H          10.1197    3.5167    1.2314 H     119  UNK119      0.0278
    120 H          10.2327    4.7884   -0.1590 H     120  UNK120      0.0278
    121 H           8.5967    2.5470    0.0122 H     121  UNK121      0.0428
    122 H           9.3797    3.0463   -1.5828 H     122  UNK122      0.0428
    123 N          11.8248    0.2810    1.5507 N.3   123  UNL123     -0.2726
    124 C          13.0498   -0.3402    2.0459 C.3   124  UNL124      0.0835
    125 C          13.4748   -1.4825    1.1578 C.3   125  UNL125      0.2201
    126 O          12.8328   -1.8061    0.1576 O.3   126  HOH126     -0.2041
    127 C          12.8808   -0.7931    3.5177 C.3   127  UNL127      0.0639
    128 O          11.9848   -1.8998    3.6603 O.3   128  HOH128     -0.3933
    129 H          11.3258   -0.0694    0.6604 H     129  UNK129      0.1253
    130 H          13.8558    0.4170    2.0031 H     130  UNK130      0.0529
    131 H          13.8658   -1.0873    3.9325 H     131  UNK131      0.0574
    132 H          12.5408    0.0426    4.1588 H     132  UNK132      0.0574
    133 H          11.1178   -1.6077    3.3646 H     133  UNK133      0.2095
    134 N          13.3029   -1.5760    0.0084 N.3   134  UNL134     -0.2745
    135 C          14.7189   -1.5576   -0.3478 C.3   135  UNL135      0.0603
    136 C          14.9189   -1.0119   -1.7425 C.3   136  UNL136      0.2179
    137 O          13.9749   -0.6494   -2.4401 O.3   137  HOH137     -0.2042
    138 C          15.2879   -2.9993   -0.2154 C.3   138  UNL138     -0.0321
    139 C          16.8359   -3.1166   -0.2897 C.3   139  UNL139     -0.0388
    140 C          17.3109   -4.5762   -0.1863 C.3   140  UNL140     -0.0011
    141 N          18.8019   -4.6256   -0.2440 N.3   141  UNL141     -0.2830
    142 C          19.5369   -5.7309   -0.1874 C.3   142  UNL142      0.1668
    143 N          19.0329   -6.9275   -0.0810 N.3   143  UNL143     -0.2971
    144 N          20.8259   -5.6159   -0.2399 N.3   144  UNL144     -0.2971
    145 H          12.9769   -1.9141    0.9206 H     145  UNK145      0.1253
    146 H          15.2399   -0.8796    0.3537 H     146  UNK146      0.0506
    147 H          14.9459   -3.4373    0.7445 H     147  UNK147      0.0282
    148 H          14.8199   -3.6386   -0.9941 H     148  UNK148      0.0282
    149 H          17.2069   -2.6778   -1.2401 H     149  UNK149      0.0278
    150 H          17.2879   -2.5048    0.5190 H     150  UNK150      0.0278
    151 H          16.9319   -5.0217    0.7605 H     151  UNK151      0.0425
    152 H          16.8619   -5.1675   -1.0136 H     152  UNK152      0.0425
    153 H          19.3529   -3.7648   -0.3272 H     153  UNK153      0.1250
    154 H          19.6659   -7.7279   -0.0440 H     154  UNK154      0.1213
    155 H          18.0109   -6.9498   -0.0465 H     155  UNK155      0.1213
    156 H          21.2019   -4.6700   -0.3213 H     156  UNK156      0.1213
    157 H          21.3749   -6.4771   -0.1924 H     157  UNK157      0.1213
    158 N          14.7810    0.2645   -1.5536 N.3   158  UNL158     -0.2745
    159 C          15.7290    1.3470   -1.8963 C.3   159  UNL159      0.0643
    160 C          16.7230    1.5071   -0.7735 C.3   160  UNL160      0.2180
    161 O          17.9290    1.5240   -0.9579 O.3   161  HOH161     -0.2042
    162 H          14.3040    0.4507   -0.6020 H     162  UNK162      0.1253
    163 H          16.2750    1.0306   -2.8004 H     163  UNK163      0.0507
    164 C          15.0240    2.6989   -2.1921 C.3   164  UNL164      0.0167
    165 H          14.3470    2.5836   -3.0510 H     165  UNK165      0.0325
    166 H          15.7870    3.4455   -2.4710 H     166  UNK166      0.0325
    167 C          14.2460    3.2164   -1.0025 C.3   167  UNL167      0.1997
    168 O          14.7760    4.0097   -0.2415 O.3   168  HOH168     -0.2061
    169 N          12.9820    2.7943   -0.7979 N.3   169  UNL169     -0.2972
    170 H          12.5290    2.1503   -1.4185 H     170  UNK170      0.1211
    171 H          12.4870    3.1440   -0.0036 H     171  UNK171      0.1211
    172 N          16.2591    1.4844    0.5294 N.3   172  UNL172     -0.2746
    173 C          17.5061    1.5649    1.2852 C.3   173  UNL173      0.0608
    174 C          17.8341    0.2390    1.9303 C.3   174  UNL174      0.2179
    175 O          17.0891   -0.7707    1.7988 O.3   175  HOH175     -0.2042
    176 C          17.3881    2.6523    2.3956 C.3   176  UNL176     -0.0265
    177 C          17.0541    4.0765    1.9270 C.3   177  UNL177     -0.0147
    178 C          15.7161    4.4641    1.7964 C.3   178  UNL178     -0.0275
    179 C          18.0681    4.9690    1.5730 C.3   179  UNL179     -0.0275
    180 C          15.3961    5.7223    1.2951 C.3   180  UNL180     -0.0307
    181 C          17.7481    6.2320    1.0864 C.3   181  UNL181     -0.0307
    182 C          16.4121    6.6082    0.9419 C.3   182  UNL182     -0.0309
    183 H          15.6821    0.5726    0.4703 H     183  UNK183      0.1253
    184 H          18.3291    1.8216    0.5907 H     184  UNK184      0.0506
    185 H          16.6341    2.3342    3.1468 H     185  UNK185      0.0287
    186 H          18.3311    2.6867    2.9769 H     186  UNK186      0.0287
    187 H          14.9211    3.7704    2.0382 H     187  UNK187      0.0312
    188 H          19.1051    4.6763    1.6625 H     188  UNK188      0.0312
    189 H          14.3611    6.0010    1.1702 H     189  UNK189      0.0309
    190 H          18.5351    6.9175    0.8031 H     190  UNK190      0.0309
    191 H          16.1621    7.5820    0.5513 H     191  UNK191      0.0309
    192 N          17.7372   -0.7783    1.3704 N.3   192  UNL192     -0.2743
    193 C          18.9832   -1.5389    1.3208 C.3   193  UNL193      0.0628
    194 C          19.3162   -1.9396   -0.0965 C.3   194  UNL194      0.2208
    195 O          18.5912   -1.6357   -1.0524 O.3   195  HOH195     -0.2039
    196 C          18.8742   -2.8085    2.2538 C.3   196  UNL196     -0.0270
    197 C          18.7272   -2.4708    3.7586 C.3   197  UNL197     -0.0611
    198 C          20.0462   -3.8274    2.1725 C.3   198  UNL198     -0.0611
    199 H          17.1652   -0.5583    0.4811 H     199  UNK199      0.1253
    200 H          19.8072   -0.8934    1.6769 H     200  UNK200      0.0508
    201 H          17.9572   -3.3593    1.9515 H     201  UNK201      0.0312
    202 H          19.6292   -1.9796    4.1667 H     202  UNK202      0.0233
    203 H          17.8722   -1.7986    3.9476 H     203  UNK203      0.0233
    204 H          18.5432   -3.3780    4.3657 H     204  UNK204      0.0233
    205 H          21.0192   -3.3713    2.4389 H     205  UNK205      0.0233
    206 H          19.8952   -4.6930    2.8469 H     206  UNK206      0.0233
    207 H          20.1562   -4.2652    1.1633 H     207  UNK207      0.0233
    208 N          19.2153   -1.2150   -1.0038 N.3   208  UNL208     -0.2603
    209 C          20.6263   -1.0315   -1.5562 C.3   209  UNL209      0.0631
    210 C          20.9773    0.4084   -1.9190 C.3   210  UNL210      0.2182
    211 O          20.1023    1.2918   -1.7362 O.3   211  HOH211     -0.2042
    212 C          20.6973   -1.8661   -2.8277 C.3   212  UNL212     -0.0319
    213 C          19.2563   -1.7259   -3.3450 C.3   213  UNL213     -0.0385
    214 C          18.4033   -1.8375   -2.0768 C.3   214  UNL214      0.0022
    215 H          21.3543   -1.3550   -0.8261 H     215  UNK215      0.0508
    216 H          21.3753   -1.3771   -3.5471 H     216  UNK216      0.0282
    217 H          20.8873   -2.9140   -2.5634 H     217  UNK217      0.0282
    218 H          18.9883   -0.7049   -3.6587 H     218  UNK218      0.0278
    219 H          19.1013   -2.5462   -4.0584 H     219  UNK219      0.0278
    220 H          17.4653   -1.2707   -2.2074 H     220  UNK220      0.0428
    221 H          18.2483   -2.9004   -1.8365 H     221  UNK221      0.0428
    222 N          20.6934    1.1989   -1.0230 N.3   222  UNL222     -0.2726
    223 C          21.9184    1.9393   -0.7352 C.3   223  UNL223      0.0835
    224 C          22.3434    1.7464    0.6988 C.3   224  UNL224      0.2201
    225 O          21.7014    1.0448    1.4817 O.3   225  HOH225     -0.2041
    226 C          21.7494    3.4392   -1.0842 C.3   226  UNL226      0.0639
    227 O          20.8534    4.1192   -0.1994 O.3   227  HOH227     -0.3933
    228 H          20.1944    0.6056   -0.2722 H     228  UNK228      0.1253
    229 H          22.7244    1.5214   -1.3680 H     229  UNK229      0.0529
    230 H          22.7344    3.9456   -1.0386 H     230  UNK230      0.0574
    231 H          21.4094    3.5728   -2.1289 H     231  UNK231      0.0574
    232 H          19.9864    3.7167   -0.3031 H     232  UNK232      0.2095
    233 N          22.1715    0.8000    1.3578 N.3   233  UNL233     -0.2745
    234 C          23.1185    0.2038    2.2990 C.3   234  UNL234      0.0602
    235 C          24.0885   -0.6584    1.5249 C.3   235  UNL235      0.2179
    236 O          25.2735   -0.6048    1.8096 O.3   236  HOH236     -0.2042
    237 C          22.4135   -0.6469    3.3898 C.3   237  UNL237     -0.0332
    238 C          21.5265    0.2351    4.3136 C.3   238  UNL238     -0.0504
    239 C          20.6615   -0.6231    5.2753 C.3   239  UNL239     -0.0418
    240 C          19.7005    0.2597    6.1155 C.3   240  UNL240     -0.0196
    241 N          18.8375   -0.5580    6.9988 N.3   241  UNL241     -0.3784
    242 H          23.6775    1.0119    2.8030 H     242  UNK242      0.0506
    243 H          21.2145    0.5105    1.3796 H     243  UNK243      0.1253
    244 H          23.1725   -1.1552    4.0089 H     244  UNK244      0.0282
    245 H          21.8025   -1.4202    2.8988 H     245  UNK245      0.0282
    246 H          20.8545    0.8614    3.7052 H     246  UNK246      0.0266
    247 H          22.1665    0.9148    4.9034 H     247  UNK247      0.0266
    248 H          21.3205   -1.1968    5.9478 H     248  UNK248      0.0277
    249 H          20.0595   -1.3364    4.6903 H     249  UNK249      0.0277
    250 H          19.0645    0.8457    5.4326 H     250  UNK250      0.0409
    251 H          20.2895    0.9707    6.7213 H     251  UNK251      0.0409
    252 H          18.2355   -1.2554    6.4388 H     252  UNK252      0.1004
    253 H          18.1525    0.0638    7.5597 H     253  UNK253      0.1004
    254 H          19.4205   -1.1152    7.7148 H     254  UNK254      0.1004
    255 N          23.6496   -1.4758    0.5530 N.3   255  UNL255     -0.2734
    256 C          24.9266   -1.9556   -0.0382 C.3   256  UNL256      0.0777
    257 C          25.3066   -1.4955   -1.4899 C.3   257  UNL257      0.2746
    258 O          24.6546   -0.7324   -2.1644 O.3   258  HOH258     -0.1891
    259 C          24.8646   -3.4885    0.1029 C.3   259  UNL259      0.0332
    260 C          26.2126   -4.2458   -0.0446 C.3   260  UNL260      0.2945
    261 O          27.2366   -3.5619    0.0303 O.3   261  HOH261     -0.1875
    262 O          26.0956   -5.4612   -0.2049 O.3   262  HOH262     -0.1875
    263 H          23.1896   -0.8243   -0.0665 H     263  UNK263      0.1253
    264 H          25.7356   -1.5800    0.6192 H     264  UNK264      0.0519
    265 H          24.5076   -3.7513    1.1133 H     265  UNK265      0.0338
    266 H          24.1306   -3.9316   -0.5922 H     266  UNK266      0.0338
    267 O          25.1666   -0.4312   -1.5564 O.3   267  HOH267     -0.3574
    268 H          25.8576    0.1040   -1.9342 H     268  UNK268      0.2131
@<TRIPOS>BOND
     1     1     2    1
     2    15     8    1
     3     9     3    1
     4     2     8    1
     5     2     3    1
     6    11     6    1
     7     8    14    1
     8     8     7    1
     9     3     6    1
    10     3     4    1
    11     6     7    1
    12     6    10    1
    13     7    13    1
    14     7    12    1
    15     4     5    2
    16     4    16    1
    17    27    21    1
    18    28    21    1
    19    25    17    1
    20    16    24    1
    21    16    17    1
    22    32    23    1
    23    21    23    1
    24    21    20    1
    25    17    20    1
    26    17    18    1
    27    23    34    1
    28    23    33    1
    29    31    22    1
    30    20    22    1
    31    20    26    1
    32    18    19    2
    33    22    29    1
    34    22    30    1
    35    18    35    1
    36    40    36    1
    37    35    39    1
    38    35    36    1
    39    36    41    1
    40    36    37    1
    41    37    38    2
    42    37    42    1
    43    53    47    1
    44    54    47    1
    45    51    43    1
    46    42    50    1
    47    42    43    1
    48    58    49    1
    49    47    49    1
    50    47    46    1
    51    43    46    1
    52    43    44    1
    53    49    60    1
    54    49    59    1
    55    57    48    1
    56    46    48    1
    57    46    52    1
    58    44    45    2
    59    48    55    1
    60    48    56    1
    61    44    61    1
    62    68    62    1
    63    61    67    1
    64    61    62    1
    65    69    65    1
    66    62    65    1
    67    62    63    1
    68    65    66    1
    69    65    70    1
    70    63    64    2
    71    66    71    1
    72    63    72    1
    73    83    77    1
    74    82    77    1
    75    80    73    1
    76    72    79    1
    77    72    73    1
    78    77    84    1
    79    77    76    1
    80    73    76    1
    81    73    74    1
    82    76    81    1
    83    76    78    1
    84    85    78    1
    85    74    75    2
    86    78    86    1
    87    78    87    1
    88    74    88    1
    89    99   108    1
    90    99    98    1
    91   106    96    1
    92    98    96    2
    93    98    97    1
    94    96    94    1
    95   107    97    1
    96    97    95    2
    97    94   104    1
    98    94    93    2
    99   101    89    1
   100    88   100    1
   101    88    89    1
   102    95    93    1
   103    95   105    1
   104    93    92    1
   105    89    92    1
   106    89    90    1
   107    92   103    1
   108    92   102    1
   109    90    91    2
   110    90   109    1
   111   122   115    1
   112   116   110    1
   113   109   115    1
   114   109   110    1
   115   118   113    1
   116   115   121    1
   117   115   114    1
   118   110   113    1
   119   110   111    1
   120   113   114    1
   121   113   117    1
   122   114   120    1
   123   114   119    1
   124   111   112    2
   125   111   123    1
   126   130   124    1
   127   123   129    1
   128   123   124    1
   129   124   127    1
   130   124   125    1
   131   132   127    1
   132   127   131    1
   133   127   128    1
   134   125   126    2
   135   133   128    1
   136   125   134    1
   137   145   134    1
   138   151   140    1
   139   147   138    1
   140   150   139    1
   141   146   135    1
   142   134   135    1
   143   155   143    1
   144   154   143    1
   145   143   142    2
   146   140   141    1
   147   140   139    1
   148   140   152    1
   149   142   141    1
   150   142   144    1
   151   157   144    1
   152   138   139    1
   153   138   135    1
   154   138   148    1
   155   141   153    1
   156   144   156    1
   157   139   149    1
   158   135   136    1
   159   136   137    2
   160   136   158    1
   161   158   162    1
   162   158   159    1
   163   163   159    1
   164   159   160    1
   165   159   164    1
   166   161   160    2
   167   170   169    1
   168   165   164    1
   169   164   166    1
   170   164   167    1
   171   169   167    1
   172   169   171    1
   173   167   168    2
   174   160   172    1
   175   191   182    1
   176   190   181    1
   177   182   181    2
   178   182   180    1
   179   181   179    1
   180   189   180    1
   181   180   178    2
   182   179   188    1
   183   179   177    2
   184   184   173    1
   185   172   183    1
   186   172   173    1
   187   178   177    1
   188   178   187    1
   189   177   176    1
   190   173   176    1
   191   173   174    1
   192   176   186    1
   193   176   185    1
   194   174   175    2
   195   174   192    1
   196   203   197    1
   197   202   197    1
   198   200   193    1
   199   192   199    1
   200   192   193    1
   201   197   204    1
   202   197   196    1
   203   193   196    1
   204   193   194    1
   205   196   201    1
   206   196   198    1
   207   205   198    1
   208   194   195    2
   209   198   206    1
   210   198   207    1
   211   194   208    1
   212   221   214    1
   213   215   209    1
   214   208   214    1
   215   208   209    1
   216   217   212    1
   217   214   220    1
   218   214   213    1
   219   209   212    1
   220   209   210    1
   221   212   213    1
   222   212   216    1
   223   213   219    1
   224   213   218    1
   225   210   211    2
   226   210   222    1
   227   229   223    1
   228   222   228    1
   229   222   223    1
   230   223   226    1
   231   223   224    1
   232   231   226    1
   233   226   230    1
   234   226   227    1
   235   224   225    2
   236   232   227    1
   237   224   233    1
   238   233   243    1
   239   233   234    1
   240   242   234    1
   241   234   235    1
   242   234   237    1
   243   246   238    1
   244   235   236    2
   245   247   238    1
   246   238   237    1
   247   238   239    1
   248   250   240    1
   249   237   245    1
   250   237   244    1
   251   251   240    1
   252   240   239    1
   253   240   241    1
   254   239   249    1
   255   239   248    1
   256   253   241    1
   257   241   252    1
   258   241   254    1
   259   235   255    1
   260   264   256    1
   261   255   263    1
   262   255   256    1
   263   265   259    1
   264   256   259    1
   265   256   257    1
   266   259   260    1
   267   259   266    1
   268   261   260    2
   269   260   262    1
   270   257   258    2
   271   257   267    1
   272   267   268    1
