@<TRIPOS>MOLECULE
ligand_4
 292 296 0 0 0
SMALL
GASTEIGER

@<TRIPOS>ATOM
      1 H          -0.9080    1.9825   -0.1171 H       1  UNK1        0.1186
      2 N           0.0000    1.5760    0.0000 N.3     2  UNL2       -0.3236
      3 C           0.9470    2.0842    0.9914 C.3     3  UNL3        0.0554
      4 C           1.9170    0.9796    1.3414 C.3     4  UNL4        0.2176
      5 O           3.1020    1.2521    1.4397 O.3     5  HOH5       -0.2042
      6 C           0.2420    2.5922    2.2781 C.3     6  UNL6       -0.0335
      7 C          -0.6450    3.8358    1.9872 C.3     7  UNL7       -0.0504
      8 C          -1.5100    4.2288    3.2148 C.3     8  UNL8       -0.0418
      9 C          -2.4710    5.4008    2.8807 C.3     9  UNL9       -0.0196
     10 N          -3.3340    5.7467    4.0336 N.3    10  UNL10      -0.3784
     11 H           1.5060    2.9286    0.5511 H      11  UNK11       0.0503
     12 H          -0.9570    1.4478    0.2605 H      12  UNK12       0.1186
     13 H           1.0010    2.8675    3.0303 H      13  UNK13       0.0282
     14 H          -0.3690    1.7766    2.6951 H      14  UNK14       0.0282
     15 H          -1.3170    3.6296    1.1387 H      15  UNK15       0.0266
     16 H          -0.0050    4.6890    1.7010 H      16  UNK16       0.0266
     17 H          -0.8510    4.5169    4.0504 H      17  UNK17       0.0277
     18 H          -2.1120    3.3627    3.5323 H      18  UNK18       0.0277
     19 H          -3.1070    5.1099    2.0291 H      19  UNK19       0.0409
     20 H          -1.8820    6.2836    2.5756 H      20  UNK20       0.0409
     21 H          -3.9360    4.9102    4.3502 H      21  UNK21       0.1004
     22 H          -4.0190    6.5456    3.7826 H      22  UNK22       0.1004
     23 H          -2.7510    6.0807    4.8772 H      23  UNK23       0.1004
     24 N           1.4781   -0.2728    1.5522 N.3    24  UNL24      -0.2746
     25 C           2.4251   -1.3372    1.8812 C.3    25  UNL25       0.0602
     26 C           3.3951   -1.4907    0.7327 C.3    26  UNL26       0.2179
     27 O           4.5801   -1.6347    0.9840 O.3    27  HOH27      -0.2042
     28 C           1.7201   -2.6924    2.1588 C.3    28  UNL28      -0.0332
     29 C           0.8331   -2.6211    3.4340 C.3    29  UNL29      -0.0504
     30 C          -0.0319   -3.8981    3.6086 C.3    30  UNL30      -0.0418
     31 C          -0.9929   -3.7719    4.8207 C.3    31  UNL31      -0.0196
     32 N          -1.8559   -4.9673    4.9619 N.3    32  UNL32      -0.3784
     33 H           2.9841   -1.0496    2.7890 H      33  UNK33       0.0506
     34 H           0.5211   -0.5071    1.3808 H      34  UNK34       0.1253
     35 H           2.4791   -3.4809    2.2998 H      35  UNK35       0.0282
     36 H           1.1091   -2.9619    1.2833 H      36  UNK36       0.0282
     37 H           0.1611   -1.7497    3.3777 H      37  UNK37       0.0266
     38 H           1.4731   -2.4868    4.3239 H      38  UNK38       0.0266
     39 H           0.6271   -4.7710    3.7478 H      39  UNK39       0.0277
     40 H          -0.6339   -4.0610    2.7006 H      40  UNK40       0.0277
     41 H          -1.6289   -2.8828    4.6816 H      41  UNK41       0.0409
     42 H          -0.4039   -3.6242    5.7431 H      42  UNK42       0.0409
     43 H          -2.4579   -5.1343    4.0832 H      43  UNK43       0.1004
     44 H          -2.5409   -4.8584    5.7922 H      44  UNK44       0.1004
     45 H          -1.2729   -5.8559    5.1449 H      45  UNK45       0.1004
     46 N           2.9562   -1.4816   -0.5373 N.3    46  UNL46      -0.2746
     47 C           4.2022   -1.5702   -1.2930 C.3    47  UNL47       0.0610
     48 C           4.5572   -0.2378   -1.9092 C.3    48  UNL48       0.2206
     49 O           3.8502    0.7586   -1.7594 O.3    49  HOH49      -0.2039
     50 C           4.0442   -2.6396   -2.4096 C.3    50  UNL50      -0.0249
     51 C           3.8732   -4.0746   -1.9028 C.3    51  UNL51       0.0051
     52 C           2.6432   -4.7468   -1.7321 C.3    52  UNL52       0.0310
     53 C           4.8412   -4.9386   -1.4356 C.3    53  UNL53       0.0103
     54 N           2.8232   -6.0263   -1.1708 N.3    54  UNL54      -0.3033
     55 C           4.1942   -6.1199   -0.9932 C.3    55  UNL55       0.0491
     56 C           6.2492   -4.8014   -1.3179 C.3    56  UNL56      -0.0254
     57 C           4.9522   -7.1792   -0.4449 C.3    57  UNL57      -0.0122
     58 C           6.9782   -5.8619   -0.7836 C.3    58  UNL58      -0.0305
     59 C           6.3402   -7.0352   -0.3513 C.3    59  UNL59      -0.0293
     60 H           2.4392   -0.6292   -0.4644 H      60  UNK60       0.1253
     61 H           5.0232   -1.8501   -0.6067 H      61  UNK61       0.0506
     62 H           3.1942   -2.3780   -3.0709 H      62  UNK62       0.0288
     63 H           4.9262   -2.6254   -3.0799 H      63  UNK63       0.0288
     64 H           1.6812   -4.3090   -1.9652 H      64  UNK64       0.0482
     65 H           2.1052   -6.7085   -0.9104 H      65  UNK65       0.1229
     66 H           6.7472   -3.8977   -1.6382 H      66  UNK66       0.0313
     67 H           4.4652   -8.0802   -0.1122 H      67  UNK67       0.0326
     68 H           8.0512   -5.7762   -0.6958 H      68  UNK68       0.0309
     69 H           6.9312   -7.8418    0.0558 H      69  UNK69       0.0310
     70 N           4.4343    0.7856   -1.3662 N.3    70  UNL70      -0.2603
     71 C           5.8453    1.3610   -1.2780 C.3    71  UNL71       0.0631
     72 C           6.1963    1.9603    0.0805 C.3    72  UNL72       0.2181
     73 O           5.3213    1.9283    0.9820 O.3    73  HOH73      -0.2042
     74 C           5.9163    2.4744   -2.3143 C.3    74  UNL74      -0.0319
     75 C           4.4753    3.0079   -2.2628 C.3    75  UNL75      -0.0385
     76 C           3.6223    1.7390   -2.1600 C.3    76  UNL76       0.0022
     77 H           6.5733    0.5869   -1.4745 H      77  UNK77       0.0508
     78 H           6.5943    3.2656   -1.9529 H      78  UNK78       0.0282
     79 H           6.1063    2.0379   -3.3029 H      79  UNK79       0.0282
     80 H           4.2073    3.4885   -1.3090 H      80  UNK80       0.0278
     81 H           4.3203    3.5734   -3.1913 H      81  UNK81       0.0278
     82 H           2.6843    1.9628   -1.6232 H      82  UNK82       0.0428
     83 H           3.4673    1.3237   -3.1675 H      83  UNK83       0.0428
     84 N           5.9124    1.2097    1.0102 N.3    84  UNL84      -0.2746
     85 C           6.8594    0.9643    2.0969 C.3    85  UNL85       0.0602
     86 C           7.8294   -0.1079    1.6575 C.3    86  UNL86       0.2179
     87 O           9.0144    0.0382    1.9076 O.3    87  HOH87      -0.2042
     88 C           6.1544    0.5294    3.4101 C.3    88  UNL88      -0.0332
     89 C           5.2674    1.6704    3.9840 C.3    89  UNL89      -0.0504
     90 C           4.4024    1.1853    5.1781 C.3    90  UNL90      -0.0418
     91 C           3.4414    2.2989    5.6729 C.3    91  UNL91      -0.0196
     92 N           2.5784    1.8255    6.7795 N.3    92  UNL92      -0.3784
     93 H           7.4184    1.8946    2.3002 H      93  UNK93       0.0506
     94 H           4.9554    0.9443    1.1279 H      94  UNK94       0.1253
     95 H           6.9134    0.2586    4.1640 H      95  UNK95       0.0282
     96 H           5.5434   -0.3639    3.2074 H      96  UNK96       0.0282
     97 H           4.5954    2.0560    3.2005 H      97  UNK97       0.0266
     98 H           5.9074    2.5088    4.3112 H      98  UNK98       0.0266
     99 H           5.0614    0.8708    6.0042 H      99  UNK99       0.0277
    100 H           3.8004    0.3169    4.8667 H     100  UNK100      0.0277
    101 H           2.8054    2.6215    4.8328 H     101  UNK101      0.0409
    102 H           4.0304    3.1722    6.0046 H     102  UNK102      0.0409
    103 H           1.9764    0.9805    6.4863 H     103  UNK103      0.1004
    104 H           1.8934    2.5996    7.0990 H     104  UNK104      0.1004
    105 H           3.1614    1.5412    7.6411 H     105  UNK105      0.1004
    106 N           7.3905   -1.2043    1.0166 N.3   106  UNL106     -0.2746
    107 C           8.6205   -1.9350    0.7241 C.3   107  UNL107      0.0608
    108 C           9.0285   -1.7500   -0.7192 C.3   108  UNL108      0.2179
    109 O           8.3715   -1.0612   -1.4995 O.3   109  HOH109     -0.2042
    110 C           8.4335   -3.4589    0.9799 C.3   110  UNL110     -0.0265
    111 C           8.0975   -3.8814    2.4123 C.3   111  UNL111     -0.0146
    112 C           9.0945   -3.9391    3.3931 C.3   112  UNL112     -0.0249
    113 C           6.7795   -4.2013    2.7531 C.3   113  UNL113     -0.0249
    114 C           8.7735   -4.3107    4.6953 C.3   114  UNL114      0.0003
    115 C           6.4605   -4.5697    4.0573 C.3   115  UNL115      0.0003
    116 C           7.4585   -4.6241    5.0266 C.3   116  UNL116      0.1020
    117 O           7.1465   -4.9840    6.3075 O.3   117  HOH117     -0.3851
    118 H           6.8785   -0.6218    0.2652 H     118  UNK118      0.1253
    119 H           9.4325   -1.5387    1.3607 H     119  UNK119      0.0506
    120 H           7.6625   -3.8564    0.2862 H     120  UNK120      0.0287
    121 H           9.3515   -4.0018    0.6790 H     121  UNK121      0.0287
    122 H          10.1175   -3.6936    3.1433 H     122  UNK122      0.0313
    123 H           5.9965   -4.1509    2.0055 H     123  UNK123      0.0313
    124 H           9.5405   -4.3523    5.4518 H     124  UNK124      0.0336
    125 H           5.4375   -4.8098    4.3050 H     125  UNK125      0.0336
    126 H           6.2055   -5.1640    6.3504 H     126  UNK126      0.2103
    127 N           8.8686   -0.7928   -1.3621 N.3   127  UNL127     -0.2738
    128 C          10.1086   -0.3722   -2.0098 C.3   128  UNL128      0.0690
    129 C          10.4726    1.0375   -1.6156 C.3   129  UNL129      0.2187
    130 O          11.6736    1.5593   -2.1895 O.3   130  HOH130     -0.2041
    131 C           9.9446   -0.5346   -3.5338 C.3   131  UNL131      0.0104
    132 S          11.5036   -0.2024   -4.3833 S.3   132  UNL132     -0.1766
    133 H           8.3216   -0.1420   -0.6967 H     133  UNK133      0.1253
    134 H          10.9236   -1.0321   -1.6604 H     134  UNK134      0.0514
    135 H           9.6276   -1.5608   -3.7956 H     135  UNK135      0.0390
    136 H           9.1586    0.1411   -3.9315 H     136  UNK136      0.0390
    137 H          11.1736    0.9949   -4.8612 H     137  UNK137      0.1017
    138 N          10.3467    1.4787   -0.5451 N.3   138  UNL138     -0.2746
    139 C          11.5937    2.0249   -0.0166 C.3   139  UNL139      0.0608
    140 C          11.9217    1.4207    1.3284 C.3   140  UNL140      0.2179
    141 O          11.1767    0.5615    1.8747 O.3   141  HOH141     -0.2042
    142 C          11.4757    3.5713    0.1387 C.3   142  UNL142     -0.0265
    143 C          11.1417    4.3641   -1.1338 C.3   143  UNL143     -0.0147
    144 C           9.8037    4.5779   -1.4826 C.3   144  UNL144     -0.0275
    145 C          12.1557    4.8222   -1.9776 C.3   145  UNL145     -0.0275
    146 C           9.4837    5.2223   -2.6738 C.3   146  UNL146     -0.0307
    147 C          11.8357    5.4798   -3.1608 C.3   147  UNL147     -0.0307
    148 C          10.4997    5.6759   -3.5128 C.3   148  UNL148     -0.0309
    149 H           9.7697    0.7410   -0.0061 H     149  UNK149      0.1253
    150 H          12.4167    1.7768   -0.7142 H     150  UNK150      0.0506
    151 H          10.7217    3.8087    0.9192 H     151  UNK151      0.0287
    152 H          12.4187    3.9703    0.5628 H     152  UNK152      0.0287
    153 H           9.0087    4.2004   -0.8523 H     153  UNK153      0.0312
    154 H          13.1927    4.6549   -1.7213 H     154  UNK154      0.0312
    155 H           8.4487    5.3562   -2.9483 H     155  UNK155      0.0309
    156 H          12.6227    5.8244   -3.8175 H     156  UNK156      0.0309
    157 H          10.2497    6.1730   -4.4367 H     157  UNK157      0.0309
    158 N          11.8248    0.2810    1.5507 N.3   158  UNL158     -0.2738
    159 C          13.0648   -0.3352    2.0163 C.3   159  UNL159      0.0690
    160 C          13.4288   -1.5261    1.1651 C.3   160  UNL160      0.2187
    161 O          14.6298   -2.2123    1.5267 O.3   161  HOH161     -0.2041
    162 C          12.9008   -0.7022    3.5043 C.3   162  UNL162      0.0104
    163 S          14.4598   -1.3041    4.1897 S.3   163  UNL163     -0.1766
    164 H          11.2778   -0.1040    0.7034 H     164  UNK164      0.1253
    165 H          13.8798    0.4042    1.9128 H     165  UNK165      0.0514
    166 H          12.5838    0.1733    4.1003 H     166  UNK166      0.0390
    167 H          12.1148   -1.4729    3.6479 H     167  UNK167      0.0390
    168 H          14.1298   -2.5925    4.2309 H     168  UNK168      0.1017
    169 N          13.3029   -1.5760    0.0084 N.3   169  UNL169     -0.2746
    170 C          14.2329   -2.1198   -0.9791 C.3   170  UNL170      0.0605
    171 C          15.2139   -1.0309   -1.3530 C.3   171  UNL171      0.2179
    172 O          16.3989   -1.3082   -1.4353 O.3   172  HOH172     -0.2042
    173 C          13.5289   -2.6299   -2.2683 C.3   173  UNL173     -0.0309
    174 C          12.4829   -3.7648   -2.0358 C.3   174  UNL174     -0.0452
    175 C          11.8089   -4.1385   -3.3858 C.3   175  UNL175     -0.0626
    176 C          13.1089   -5.0342   -1.3916 C.3   176  UNL176     -0.0626
    177 H          14.8029   -2.9474   -0.5263 H     177  UNK177      0.0506
    178 H          12.3489   -1.4178   -0.2517 H     178  UNK178      0.1253
    179 H          14.3019   -2.9967   -2.9627 H     179  UNK179      0.0284
    180 H          13.0259   -1.7737   -2.7424 H     180  UNK180      0.0284
    181 H          11.6849   -3.4022   -1.3656 H     181  UNK181      0.0296
    182 H          11.3329   -3.2523   -3.8371 H     182  UNK182      0.0232
    183 H          11.0329   -4.9031   -3.2383 H     183  UNK183      0.0232
    184 H          12.5569   -4.5309   -4.0932 H     184  UNK184      0.0232
    185 H          13.9709   -5.3781   -1.9857 H     185  UNK185      0.0232
    186 H          12.3679   -5.8475   -1.3488 H     186  UNK186      0.0232
    187 H          13.4379   -4.8355   -0.3619 H     187  UNK187      0.0232
    188 N          14.7810    0.2645   -1.5536 N.3   188  UNL188     -0.2744
    189 C          16.0270    0.9965   -1.7663 C.3   189  UNL189      0.0625
    190 C          16.3600    1.8563   -0.5705 C.3   190  UNL190      0.2182
    191 O          15.6350    1.8965    0.4317 O.3   191  HOH191     -0.2041
    192 C          15.9180    1.8719   -3.0762 C.3   192  UNL192     -0.0270
    193 C          15.7710    1.0414   -4.3758 C.3   193  UNL193     -0.0611
    194 C          17.0900    2.8575   -3.3472 C.3   194  UNL194     -0.0611
    195 H          14.2090    0.3608   -0.6426 H     195  UNK195      0.1253
    196 H          16.8510    0.2682   -1.8810 H     196  UNK196      0.0508
    197 H          15.0010    2.4928   -2.9798 H     197  UNK197      0.0312
    198 H          16.6730    0.4405   -4.5919 H     198  UNK198      0.0233
    199 H          14.9160    0.3451   -4.3243 H     199  UNK199      0.0233
    200 H          15.5870    1.6873   -5.2558 H     200  UNK200      0.0233
    201 H          18.0630    2.3379   -3.4421 H     201  UNK201      0.0233
    202 H          16.9390    3.4414   -4.2762 H     202  UNK202      0.0233
    203 H          17.2000    3.6131   -2.5477 H     203  UNK203      0.0233
    204 N          16.2591    1.4844    0.5294 N.3   204  UNL204     -0.2743
    205 C          17.5081    1.5574    1.2817 C.3   205  UNL205      0.0628
    206 C          17.8211    0.2365    1.9416 C.3   206  UNL206      0.2182
    207 O          19.0271    0.1878    2.7085 O.3   207  HOH207     -0.2041
    208 C          17.4831    2.7467    2.3256 C.3   208  UNL208     -0.0244
    209 C          17.0911    4.1340    1.7264 C.3   209  UNL209     -0.0518
    210 C          18.8351    2.9128    3.0880 C.3   210  UNL210     -0.0609
    211 C          16.7421    5.2359    2.7497 C.3   211  UNL211     -0.0650
    212 H          15.6721    0.5798    0.4820 H     212  UNK212      0.1253
    213 H          18.3231    1.7478    0.5591 H     213  UNK213      0.0508
    214 H          16.7051    2.4907    3.0787 H     214  UNK214      0.0314
    215 H          17.8791    4.4902    1.0352 H     215  UNK215      0.0266
    216 H          16.1941    4.0191    1.0889 H     216  UNK216      0.0266
    217 H          18.7911    3.7077    3.8527 H     217  UNK217      0.0233
    218 H          19.1341    2.0076    3.6469 H     218  UNK218      0.0233
    219 H          19.6671    3.1678    2.4061 H     219  UNK219      0.0233
    220 H          16.4061    6.1608    2.2390 H     220  UNK220      0.0230
    221 H          15.9261    4.9245    3.4242 H     221  UNK221      0.0230
    222 H          17.6051    5.5172    3.3795 H     222  UNK222      0.0230
    223 N          17.7372   -0.7783    1.3704 N.3   223  UNL223     -0.2746
    224 C          18.6472   -1.9225    1.3445 C.3   224  UNL224      0.0604
    225 C          19.6632   -1.7227    0.2450 C.3   225  UNL225      0.2179
    226 O          20.8392   -1.9561    0.4793 O.3   226  HOH226     -0.2042
    227 C          17.9042   -3.2728    1.1440 C.3   227  UNL227     -0.0280
    228 C          16.9652   -3.5997    2.3393 C.3   228  UNL228      0.0140
    229 C          16.1982   -4.8855    2.1483 C.3   229  UNL229      0.2929
    230 O          16.4212   -5.5911    1.1291 O.3   230  HOH230     -0.1876
    231 O          15.3552   -5.2015    3.0286 O.3   231  HOH231     -0.1876
    232 H          19.1812   -1.9739    2.3080 H     232  UNK232      0.0506
    233 H          16.7662   -0.9202    1.1770 H     233  UNK233      0.1253
    234 H          18.6482   -4.0806    1.0518 H     234  UNK234      0.0283
    235 H          17.3232   -3.2301    0.2111 H     235  UNK235      0.0283
    236 H          16.2302   -2.7945    2.4871 H     236  UNK236      0.0321
    237 H          17.5632   -3.6898    3.2576 H     237  UNK237      0.0321
    238 N          19.2153   -1.2150   -1.0038 N.3   238  UNL238     -0.2744
    239 C          20.4613   -1.0345   -1.7443 C.3   239  UNL239      0.0625
    240 C          20.7943    0.4308   -1.8936 C.3   240  UNL240      0.2182
    241 O          20.0693    1.3196   -1.4289 O.3   241  HOH241     -0.2041
    242 C          20.3523   -1.7338   -3.1562 C.3   242  UNL242     -0.0270
    243 C          20.2053   -3.2743   -3.0840 C.3   243  UNL243     -0.0611
    244 C          21.5243   -1.4773   -4.1456 C.3   244  UNL244     -0.0611
    245 H          18.6433   -0.3772   -0.6331 H     245  UNK245      0.1253
    246 H          21.2853   -1.4969   -1.1701 H     246  UNK246      0.0508
    247 H          19.4353   -1.3406   -3.6464 H     247  UNK247      0.0312
    248 H          21.1073   -3.7612   -2.6708 H     248  UNK248      0.0233
    249 H          19.3503   -3.5767   -2.4547 H     249  UNK249      0.0233
    250 H          20.0213   -3.7152   -4.0826 H     250  UNK250      0.0233
    251 H          22.4973   -1.8186   -3.7425 H     251  UNK251      0.0233
    252 H          21.3733   -1.9917   -5.1149 H     252  UNK252      0.0233
    253 H          21.6343   -0.4076   -4.4022 H     253  UNK253      0.0233
    254 N          20.6934    1.1989   -1.0230 N.3   254  UNL254     -0.2746
    255 C          21.6234    2.2514   -0.6192 C.3   255  UNL255      0.0605
    256 C          22.6044    1.6605    0.3689 C.3   256  UNL256      0.2177
    257 O          23.7894    1.9255    0.2529 O.3   257  HOH257     -0.2042
    258 C          20.9194    3.4728    0.0369 C.3   258  UNL258     -0.0309
    259 C          19.8734    4.1900   -0.8729 C.3   259  UNL259     -0.0452
    260 C          19.1994    5.3464   -0.0822 C.3   260  UNL260     -0.0626
    261 C          20.4994    4.7445   -2.1839 C.3   261  UNL261     -0.0626
    262 H          22.1934    2.5917   -1.4990 H     262  UNK262      0.0506
    263 H          19.7394    1.2458   -0.7222 H     263  UNK263      0.1253
    264 H          21.6924    4.2010    0.3310 H     264  UNK264      0.0284
    265 H          20.4164    3.1243    0.9515 H     265  UNK265      0.0284
    266 H          19.0754    3.4806   -1.1510 H     266  UNK266      0.0296
    267 H          18.7234    4.9603    0.8342 H     267  UNK267      0.0232
    268 H          18.4234    5.8356   -0.6881 H     268  UNK268      0.0232
    269 H          19.9474    6.1025    0.2052 H     269  UNK269      0.0232
    270 H          21.3614    5.3906   -1.9517 H     270  UNK270      0.0232
    271 H          19.7584    5.3383   -2.7412 H     271  UNK271      0.0232
    272 H          20.8284    3.9284   -2.8426 H     272  UNK272      0.0232
    273 N          22.1715    0.8000    1.3578 N.3   273  UNL273     -0.2774
    274 C          23.4195    0.3766    1.9856 C.3   274  UNL274      0.0487
    275 C          23.7405   -1.0581    1.6379 C.3   275  UNL275      0.2149
    276 O          23.0105   -1.7310    0.9172 O.3   276  HOH276     -0.2045
    277 H          21.5905    0.1363    0.7345 H     277  UNK277      0.1250
    278 H          24.2525    1.0244    1.6581 H     278  UNK278      0.0469
    279 H          23.3485    0.4770    3.0843 H     279  UNK279      0.0469
    280 N          23.6496   -1.4758    0.5530 N.3   280  UNL280     -0.2720
    281 C          24.8746   -2.0738    0.0301 C.3   281  UNL281      0.0958
    282 C          25.2996   -1.4035   -1.2523 C.3   282  UNL282      0.2766
    283 O          24.6576   -0.4771   -1.7491 O.3   283  HOH283     -0.1890
    284 C          24.7056   -3.6027   -0.1532 C.3   284  UNL284      0.0649
    285 O          23.8096   -3.9404   -1.2168 O.3   285  HOH285     -0.3933
    286 H          23.1506   -0.6622    0.0494 H     286  UNK286      0.1254
    287 H          25.6806   -1.8966    0.7674 H     287  UNK287      0.0540
    288 H          25.6906   -4.0633   -0.3688 H     288  UNK288      0.0574
    289 H          24.3656   -4.0846    0.7834 H     289  UNK289      0.0574
    290 H          22.9426   -3.5974   -0.9821 H     290  UNK290      0.2095
    291 O          25.1666   -0.4312   -1.5564 O.3   291  HOH291     -0.3573
    292 H          25.8576    0.1040   -1.9342 H     292  UNK292      0.2131
@<TRIPOS>BOND
     1     1     2    1
     2     2    12    1
     3     2     3    1
     4    11     3    1
     5     3     4    1
     6     3     6    1
     7    15     7    1
     8     4     5    2
     9    16     7    1
    10     7     6    1
    11     7     8    1
    12    19     9    1
    13     6    14    1
    14     6    13    1
    15    20     9    1
    16     9     8    1
    17     9    10    1
    18     8    18    1
    19     8    17    1
    20    22    10    1
    21    10    21    1
    22    10    23    1
    23     4    24    1
    24    24    34    1
    25    24    25    1
    26    33    25    1
    27    25    26    1
    28    25    28    1
    29    37    29    1
    30    26    27    2
    31    38    29    1
    32    29    28    1
    33    29    30    1
    34    41    31    1
    35    28    36    1
    36    28    35    1
    37    42    31    1
    38    31    30    1
    39    31    32    1
    40    30    40    1
    41    30    39    1
    42    44    32    1
    43    32    43    1
    44    32    45    1
    45    26    46    1
    46    69    59    1
    47    67    57    1
    48    59    57    1
    49    59    58    2
    50    57    55    2
    51    65    54    1
    52    68    58    1
    53    58    56    1
    54    55    54    1
    55    55    53    1
    56    54    52    1
    57    56    53    2
    58    56    66    1
    59    53    51    1
    60    61    47    1
    61    46    60    1
    62    46    47    1
    63    52    64    1
    64    52    51    2
    65    51    50    1
    66    47    50    1
    67    47    48    1
    68    50    63    1
    69    50    62    1
    70    48    49    2
    71    48    70    1
    72    83    76    1
    73    77    71    1
    74    70    76    1
    75    70    71    1
    76    79    74    1
    77    76    82    1
    78    76    75    1
    79    71    74    1
    80    71    72    1
    81    74    75    1
    82    74    78    1
    83    75    81    1
    84    75    80    1
    85    72    73    2
    86    72    84    1
    87    84    94    1
    88    84    85    1
    89    93    85    1
    90    85    86    1
    91    85    88    1
    92    97    89    1
    93    86    87    2
    94    98    89    1
    95    89    88    1
    96    89    90    1
    97   101    91    1
    98    88    96    1
    99    88    95    1
   100   102    91    1
   101    91    90    1
   102    91    92    1
   103    90   100    1
   104    90    99    1
   105   104    92    1
   106    92   103    1
   107    92   105    1
   108    86   106    1
   109   117   126    1
   110   117   116    1
   111   124   114    1
   112   116   114    2
   113   116   115    1
   114   114   112    1
   115   125   115    1
   116   115   113    2
   117   112   122    1
   118   112   111    2
   119   119   107    1
   120   106   118    1
   121   106   107    1
   122   113   111    1
   123   113   123    1
   124   111   110    1
   125   107   110    1
   126   107   108    1
   127   110   121    1
   128   110   120    1
   129   108   109    2
   130   108   127    1
   131   134   128    1
   132   127   133    1
   133   127   128    1
   134   135   131    1
   135   128   131    1
   136   128   129    1
   137   131   132    1
   138   131   136    1
   139   129   130    2
   140   132   137    1
   141   129   138    1
   142   157   148    1
   143   156   147    1
   144   148   147    2
   145   148   146    1
   146   147   145    1
   147   155   146    1
   148   146   144    2
   149   145   154    1
   150   145   143    2
   151   150   139    1
   152   138   149    1
   153   138   139    1
   154   144   143    1
   155   144   153    1
   156   143   142    1
   157   139   142    1
   158   139   140    1
   159   142   152    1
   160   142   151    1
   161   140   141    2
   162   140   158    1
   163   165   159    1
   164   158   164    1
   165   158   159    1
   166   166   162    1
   167   159   162    1
   168   159   160    1
   169   162   163    1
   170   162   167    1
   171   160   161    2
   172   163   168    1
   173   160   169    1
   174   169   178    1
   175   169   170    1
   176   187   176    1
   177   177   170    1
   178   170   171    1
   179   170   173    1
   180   171   172    2
   181   186   176    1
   182   181   174    1
   183   176   185    1
   184   176   174    1
   185   174   173    1
   186   174   175    1
   187   173   180    1
   188   173   179    1
   189   183   175    1
   190   175   182    1
   191   175   184    1
   192   171   188    1
   193   199   193    1
   194   198   193    1
   195   196   189    1
   196   188   195    1
   197   188   189    1
   198   193   200    1
   199   193   192    1
   200   189   192    1
   201   189   190    1
   202   192   197    1
   203   192   194    1
   204   201   194    1
   205   190   191    2
   206   194   202    1
   207   194   203    1
   208   190   204    1
   209   215   209    1
   210   216   209    1
   211   213   205    1
   212   204   212    1
   213   204   205    1
   214   220   211    1
   215   209   211    1
   216   209   208    1
   217   205   208    1
   218   205   206    1
   219   211   222    1
   220   211   221    1
   221   219   210    1
   222   208   210    1
   223   208   214    1
   224   206   207    2
   225   210   217    1
   226   210   218    1
   227   206   223    1
   228   223   233    1
   229   223   224    1
   230   232   224    1
   231   224   225    1
   232   224   227    1
   233   236   228    1
   234   225   226    2
   235   237   228    1
   236   228   227    1
   237   228   229    1
   238   227   235    1
   239   227   234    1
   240   231   229    2
   241   229   230    1
   242   225   238    1
   243   249   243    1
   244   248   243    1
   245   246   239    1
   246   238   245    1
   247   238   239    1
   248   243   250    1
   249   243   242    1
   250   239   242    1
   251   239   240    1
   252   242   247    1
   253   242   244    1
   254   251   244    1
   255   240   241    2
   256   244   252    1
   257   244   253    1
   258   240   254    1
   259   254   263    1
   260   254   255    1
   261   272   261    1
   262   262   255    1
   263   255   256    1
   264   255   258    1
   265   256   257    2
   266   271   261    1
   267   266   259    1
   268   261   270    1
   269   261   259    1
   270   259   258    1
   271   259   260    1
   272   258   265    1
   273   258   264    1
   274   268   260    1
   275   260   267    1
   276   260   269    1
   277   256   273    1
   278   278   274    1
   279   273   277    1
   280   273   274    1
   281   274   279    1
   282   274   275    1
   283   275   276    2
   284   275   280    1
   285   287   281    1
   286   280   286    1
   287   280   281    1
   288   281   284    1
   289   281   282    1
   290   289   284    1
   291   284   288    1
   292   284   285    1
   293   282   283    2
   294   290   285    1
   295   282   291    1
   296   291   292    1
