@<TRIPOS>MOLECULE
ligand_6
 278 284 0 0 0
SMALL
GASTEIGER

@<TRIPOS>ATOM
      1 H          -0.9080    1.9825   -0.1171 H       1  UNK1        0.1183
      2 N           0.0000    1.5760    0.0000 N.3     2  UNL2       -0.3262
      3 C           1.2480    1.9019    0.6835 C.3     3  UNL3        0.0436
      4 C           1.5690    0.8741    1.7431 C.3     4  UNL4        0.2145
      5 O           0.8390   -0.0885    1.9570 O.3     5  HOH5       -0.2045
      6 H          -0.5810    0.7020    0.2554 H       6  UNK6        0.1183
      7 H           2.0810    1.9486   -0.0409 H       7  UNK7        0.0466
      8 H           1.1770    2.8995    1.1547 H       8  UNK8        0.0466
      9 N           1.4781   -0.2728    1.5522 N.3     9  UNL9       -0.2748
     10 C           2.4281   -1.3395    1.8451 C.3    10  UNL10       0.0620
     11 C           3.4121   -1.4468    0.7040 C.3    11  UNL11       0.2180
     12 O           4.6041   -1.4836    0.9653 O.3    12  HOH12      -0.2042
     13 C           1.7331   -2.6997    2.1207 C.3    13  UNL13      -0.0115
     14 C           0.8191   -2.6334    3.3243 C.3    14  UNL14       0.0605
     15 N           1.2101   -2.2633    4.5233 N.3    15  UNL15      -0.2889
     16 C          -0.4919   -2.9440    3.3503 C.3    16  UNL16       0.0659
     17 C           0.2091   -2.2971    5.3443 C.3    17  UNL17       0.1060
     18 N          -0.8149   -2.6819    4.7284 N.3    18  UNL18      -0.2120
     19 H           2.9871   -1.0434    2.7475 H      19  UNK19       0.0506
     20 H           0.5011   -0.4814    1.5510 H      20  UNK20       0.1253
     21 H           2.4981   -3.4692    2.3120 H      21  UNK21       0.0301
     22 H           1.1581   -3.0046    1.2310 H      22  UNK22       0.0301
     23 H           2.1691   -1.9831    4.7843 H      23  UNK23       0.1242
     24 H          -1.1539   -3.2960    2.5626 H      24  UNK24       0.0513
     25 H           0.2361   -2.0365    6.4029 H      25  UNK25       0.0673
     26 N           2.9562   -1.4816   -0.5373 N.3    26  UNL26      -0.2745
     27 C           3.9042   -1.6257   -1.6635 C.3    27  UNL27       0.0646
     28 C           4.8982   -0.4924   -1.6209 C.3    28  UNL28       0.2207
     29 O           6.1042   -0.6708   -1.6703 O.3    29  HOH29      -0.2039
     30 H           2.4792   -0.5120   -0.5508 H      30  UNK30       0.1253
     31 H           4.4502   -2.5718   -1.5134 H      31  UNK31       0.0507
     32 C           3.1992   -1.6758   -3.0465 C.3    32  UNL32       0.0167
     33 H           2.5222   -2.5415   -3.0862 H      33  UNK33       0.0325
     34 H           3.9622   -1.8171   -3.8309 H      34  UNK34       0.0325
     35 C           2.4212   -0.4130   -3.3436 C.3    35  UNL35       0.1997
     36 O           2.9512    0.4773   -3.9885 O.3    36  HOH36      -0.2061
     37 N           1.1572   -0.2870   -2.8918 N.3    37  UNL37      -0.2972
     38 H           0.7042   -1.0124   -2.3687 H      38  UNK38       0.1211
     39 H           0.6622    0.5570   -3.0943 H      39  UNK39       0.1211
     40 N           4.4343    0.7856   -1.3662 N.3    40  UNL40      -0.2603
     41 C           5.8453    1.3610   -1.2780 C.3    41  UNL41       0.0633
     42 C           6.1963    1.9603    0.0805 C.3    42  UNL42       0.2208
     43 O           5.3213    1.9283    0.9820 O.3    43  HOH43      -0.2039
     44 C           5.9163    2.4744   -2.3143 C.3    44  UNL44      -0.0319
     45 C           4.4753    3.0079   -2.2628 C.3    45  UNL45      -0.0385
     46 C           3.6223    1.7390   -2.1600 C.3    46  UNL46       0.0022
     47 H           6.5733    0.5869   -1.4745 H      47  UNK47       0.0508
     48 H           6.5943    3.2656   -1.9529 H      48  UNK48       0.0282
     49 H           6.1063    2.0379   -3.3029 H      49  UNK49       0.0282
     50 H           4.2073    3.4885   -1.3090 H      50  UNK50       0.0278
     51 H           4.3203    3.5734   -3.1913 H      51  UNK51       0.0278
     52 H           2.6843    1.9628   -1.6232 H      52  UNK52       0.0428
     53 H           3.4673    1.3237   -3.1675 H      53  UNK53       0.0428
     54 N           5.9124    1.2097    1.0102 N.3    54  UNL54      -0.2603
     55 C           7.3234    1.0232    1.5617 C.3    55  UNL55       0.0631
     56 C           7.6744   -0.4185    1.9168 C.3    56  UNL56       0.2181
     57 O           6.7994   -1.3010    1.7293 O.3    57  HOH57      -0.2042
     58 C           7.3944    1.8511    2.8376 C.3    58  UNL58      -0.0319
     59 C           5.9534    1.7081    3.3541 C.3    59  UNL59      -0.0385
     60 C           5.1004    1.8264    2.0865 C.3    60  UNL60       0.0022
     61 H           8.0514    1.3506    0.8333 H      61  UNK61       0.0508
     62 H           8.0724    1.3583    3.5543 H      62  UNK62       0.0282
     63 H           7.5844    2.9004    2.5788 H      63  UNK63       0.0282
     64 H           5.6854    0.6855    3.6624 H      64  UNK64       0.0278
     65 H           5.7984    2.5247    4.0718 H      65  UNK65       0.0278
     66 H           4.1624    1.2590    2.2141 H      66  UNK66       0.0428
     67 H           4.9454    2.8907    1.8519 H      67  UNK67       0.0428
     68 N           7.3905   -1.2043    1.0166 N.3    68  UNL68      -0.2746
     69 C           8.3225   -2.2263    0.5450 C.3    69  UNL69       0.0604
     70 C           9.3355   -1.5848   -0.3726 C.3    70  UNL70       0.2179
     71 O          10.5245   -1.7768   -0.1710 O.3    71  HOH71      -0.2042
     72 C           7.6245   -3.3814   -0.2266 C.3    72  UNL72      -0.0291
     73 C           6.7975   -4.3188    0.6929 C.3    73  UNL73      -0.0015
     74 C           5.8565   -5.2619   -0.0312 C.3    74  UNL74       0.1981
     75 O           4.8825   -5.6612    0.5913 O.3    75  HOH75      -0.2062
     76 N           6.0845   -5.6562   -1.3060 N.3    76  UNL76      -0.2972
     77 H           8.8495   -2.6372    1.4239 H      77  UNK77       0.0506
     78 H           6.4105   -1.3497    0.8941 H      78  UNK78       0.1253
     79 H           8.4025   -3.9824   -0.7202 H      79  UNK79       0.0283
     80 H           6.9725   -2.9594   -1.0068 H      80  UNK80       0.0283
     81 H           6.1925   -3.6975    1.3668 H      81  UNK81       0.0309
     82 H           7.4805   -4.9143    1.3182 H      82  UNK82       0.0309
     83 H           6.8785   -5.3519   -1.8327 H      83  UNK83       0.1211
     84 H           5.4355   -6.2803   -1.7443 H      84  UNK84       0.1211
     85 N           8.8686   -0.7928   -1.3621 N.3    85  UNL85      -0.2743
     86 C          10.1176   -0.3634   -1.9840 C.3    86  UNL86       0.0628
     87 C          10.4306    1.0717   -1.6363 C.3    87  UNL87       0.2182
     88 O          11.6366    1.6036   -2.1908 O.3    88  HOH88      -0.2041
     89 C          10.0926   -0.5987   -3.5488 C.3    89  UNL89      -0.0244
     90 C           9.7006   -2.0454   -3.9858 C.3    90  UNL90      -0.0518
     91 C          11.4446   -0.2339   -4.2385 C.3    91  UNL91      -0.0609
     92 C           9.3516   -2.2273   -5.4786 C.3    92  UNL92      -0.0650
     93 H           8.2816   -0.1321   -0.7423 H      93  UNK93       0.1253
     94 H          10.9326   -0.9749   -1.5546 H      94  UNK94       0.0508
     95 H           9.3146    0.0826   -3.9591 H      95  UNK95       0.0314
     96 H          10.4886   -2.7634   -3.6874 H      96  UNK96       0.0266
     97 H           8.8036   -2.3688   -3.4246 H      97  UNK97       0.0266
     98 H          11.4006   -0.3480   -5.3357 H      98  UNK98       0.0233
     99 H          11.7436    0.8184   -4.0818 H      99  UNK99       0.0233
    100 H          12.2766   -0.8686   -3.8820 H     100  UNK100      0.0233
    101 H           9.0156   -3.2635   -5.6849 H     101  UNK101      0.0230
    102 H           8.5356   -1.5543   -5.7931 H     102  UNK102      0.0230
    103 H          10.2146   -2.0361   -6.1413 H     103  UNK103      0.0230
    104 N          10.3467    1.4787   -0.5451 N.3   104  UNL104     -0.2746
    105 C          11.2937    2.2985    0.2093 C.3   105  UNL105      0.0602
    106 C          12.2637    1.3831    0.9197 C.3   106  UNL106      0.2179
    107 O          13.4487    1.6728    0.9178 O.3   107  HOH107     -0.2042
    108 C          10.5887    3.2202    1.2409 C.3   108  UNL108     -0.0332
    109 C           9.7017    4.2864    0.5378 C.3   109  UNL109     -0.0504
    110 C           8.8367    5.0797    1.5536 C.3   110  UNL110     -0.0418
    111 C           7.8757    6.0638    0.8348 C.3   111  UNL111     -0.0196
    112 N           7.0127    6.7872    1.7969 N.3   112  UNL112     -0.3784
    113 H          11.8527    2.9384   -0.4959 H     113  UNK113      0.0506
    114 H           9.3897    1.4485   -0.2564 H     114  UNK114      0.1253
    115 H          11.3477    3.7387    1.8514 H     115  UNK115      0.0282
    116 H           9.9777    2.5991    1.9143 H     116  UNK116      0.0282
    117 H           9.0297    3.7994   -0.1870 H     117  UNK117      0.0266
    118 H          10.3417    4.9879   -0.0259 H     118  UNK118      0.0266
    119 H           9.4957    5.6391    2.2380 H     119  UNK119      0.0277
    120 H           8.2347    4.3769    2.1512 H     120  UNK120      0.0277
    121 H           7.2397    5.4963    0.1364 H     121  UNK121      0.0409
    122 H           8.4647    6.7866    0.2431 H     122  UNK122      0.0409
    123 H           6.4107    6.1118    2.3833 H     123  UNK123      0.1004
    124 H           6.3277    7.4500    1.2850 H     124  UNK124      0.1004
    125 H           7.5957    7.3924    2.4728 H     125  UNK125      0.1004
    126 N          11.8248    0.2810    1.5507 N.3   126  UNL126     -0.2746
    127 C          13.0548   -0.3368    2.0384 C.3   127  UNL127      0.0608
    128 C          13.4628   -1.4958    1.1586 C.3   128  UNL128      0.2179
    129 O          12.8058   -1.8289    0.1725 O.3   129  HOH129     -0.2042
    130 C          12.8678   -0.8746    3.4870 C.3   130  UNL130     -0.0265
    131 C          12.5318    0.1565    4.5673 C.3   131  UNL131     -0.0146
    132 C          13.5288    0.9780    5.1062 C.3   132  UNL132     -0.0249
    133 C          11.2138    0.2924    5.0145 C.3   133  UNL133     -0.0249
    134 C          13.2078    1.9216    6.0774 C.3   134  UNL134      0.0003
    135 C          10.8948    1.2395    5.9840 C.3   135  UNL135      0.0003
    136 C          11.8928    2.0526    6.5143 C.3   136  UNL136      0.1020
    137 O          11.5808    2.9837    7.4648 O.3   137  HOH137     -0.3851
    138 H          11.3128   -0.0801    0.6712 H     138  UNK138      0.1253
    139 H          13.8668    0.4126    2.0121 H     139  UNK139      0.0506
    140 H          12.0968   -1.6742    3.4858 H     140  UNK140      0.0287
    141 H          13.7858   -1.4061    3.8077 H     141  UNK141      0.0287
    142 H          14.5518    0.8838    4.7688 H     142  UNK142      0.0313
    143 H          10.4308   -0.3305    4.5981 H     143  UNK143      0.0313
    144 H          13.9748    2.5567    6.4906 H     144  UNK144      0.0336
    145 H           9.8718    1.3345    6.3155 H     145  UNK145      0.0336
    146 H          10.6398    2.9312    7.6422 H     146  UNK146      0.2103
    147 N          13.3029   -1.5760    0.0084 N.3   147  UNL147     -0.2746
    148 C          14.2329   -2.1198   -0.9791 C.3   148  UNL148      0.0605
    149 C          15.2139   -1.0309   -1.3530 C.3   149  UNL149      0.2179
    150 O          16.3989   -1.3082   -1.4353 O.3   150  HOH150     -0.2042
    151 C          13.5289   -2.6299   -2.2683 C.3   151  UNL151     -0.0309
    152 C          12.4829   -3.7648   -2.0358 C.3   152  UNL152     -0.0452
    153 C          11.8089   -4.1385   -3.3858 C.3   153  UNL153     -0.0626
    154 C          13.1089   -5.0342   -1.3916 C.3   154  UNL154     -0.0626
    155 H          14.8029   -2.9474   -0.5263 H     155  UNK155      0.0506
    156 H          12.3489   -1.4178   -0.2517 H     156  UNK156      0.1253
    157 H          14.3019   -2.9967   -2.9627 H     157  UNK157      0.0284
    158 H          13.0259   -1.7737   -2.7424 H     158  UNK158      0.0284
    159 H          11.6849   -3.4022   -1.3656 H     159  UNK159      0.0296
    160 H          11.3329   -3.2523   -3.8371 H     160  UNK160      0.0232
    161 H          11.0329   -4.9031   -3.2383 H     161  UNK161      0.0232
    162 H          12.5569   -4.5309   -4.0932 H     162  UNK162      0.0232
    163 H          13.9709   -5.3781   -1.9857 H     163  UNK163      0.0232
    164 H          12.3679   -5.8475   -1.3488 H     164  UNK164      0.0232
    165 H          13.4379   -4.8355   -0.3619 H     165  UNK165      0.0232
    166 N          14.7810    0.2645   -1.5536 N.3   166  UNL166     -0.2749
    167 C          15.7440    1.3105   -1.8804 C.3   167  UNL167      0.0574
    168 C          16.7440    1.4194   -0.7556 C.3   168  UNL168      0.2176
    169 O          17.9340    1.4095   -1.0237 O.3   169  HOH169     -0.2042
    170 C          15.0660    2.6907   -2.0932 C.3   170  UNL170     -0.0454
    171 H          16.2590    1.0330   -2.8155 H     171  UNK171      0.0503
    172 H          13.8120    0.5030   -1.4799 H     172  UNK172      0.1253
    173 H          14.5470    3.0198   -1.1823 H     173  UNK173      0.0246
    174 H          14.3320    2.6254   -2.9123 H     174  UNK174      0.0246
    175 H          15.8220    3.4462   -2.3585 H     175  UNK175      0.0246
    176 N          16.2591    1.4844    0.5294 N.3   176  UNL176     -0.2746
    177 C          17.5061    1.5649    1.2852 C.3   177  UNL177      0.0608
    178 C          17.8341    0.2390    1.9303 C.3   178  UNL178      0.2179
    179 O          17.0891   -0.7707    1.7988 O.3   179  HOH179     -0.2042
    180 C          17.3881    2.6523    2.3956 C.3   180  UNL180     -0.0265
    181 C          17.0541    4.0765    1.9270 C.3   181  UNL181     -0.0147
    182 C          15.7161    4.4641    1.7964 C.3   182  UNL182     -0.0275
    183 C          18.0681    4.9690    1.5730 C.3   183  UNL183     -0.0275
    184 C          15.3961    5.7223    1.2951 C.3   184  UNL184     -0.0307
    185 C          17.7481    6.2320    1.0864 C.3   185  UNL185     -0.0307
    186 C          16.4121    6.6082    0.9419 C.3   186  UNL186     -0.0309
    187 H          15.6821    0.5726    0.4703 H     187  UNK187      0.1253
    188 H          18.3291    1.8216    0.5907 H     188  UNK188      0.0506
    189 H          16.6341    2.3342    3.1468 H     189  UNK189      0.0287
    190 H          18.3311    2.6867    2.9769 H     190  UNK190      0.0287
    191 H          14.9211    3.7704    2.0382 H     191  UNK191      0.0312
    192 H          19.1051    4.6763    1.6625 H     192  UNK192      0.0312
    193 H          14.3611    6.0010    1.1702 H     193  UNK193      0.0309
    194 H          18.5351    6.9175    0.8031 H     194  UNK194      0.0309
    195 H          16.1621    7.5820    0.5513 H     195  UNK195      0.0309
    196 N          17.7372   -0.7783    1.3704 N.3   196  UNL196     -0.2749
    197 C          18.7002   -1.8730    1.3210 C.3   197  UNL197      0.0574
    198 C          19.7002   -1.5920    0.2264 C.3   198  UNL198      0.2176
    199 O          20.8902   -1.6740    0.4819 O.3   199  HOH199     -0.2042
    200 C          18.0222   -3.2431    1.0506 C.3   200  UNL200     -0.0454
    201 H          19.2152   -1.9309    2.2947 H     201  UNK201      0.0503
    202 H          16.7682   -0.9774    1.2197 H     202  UNK202      0.1253
    203 H          17.5032   -3.2420    0.0819 H     203  UNK203      0.0246
    204 H          17.2882   -3.4610    1.8428 H     204  UNK204      0.0246
    205 H          18.7782   -4.0438    1.0423 H     205  UNK205      0.0246
    206 N          19.2153   -1.2150   -1.0038 N.3   206  UNL206     -0.2745
    207 C          20.1633   -0.9724   -2.1130 C.3   207  UNL207      0.0643
    208 C          21.1573    0.0807   -1.6921 C.3   208  UNL208      0.2180
    209 O          22.3633   -0.0708   -1.7986 O.3   209  HOH209     -0.2042
    210 H          18.7383   -0.2972   -0.6908 H     210  UNK210      0.1253
    211 H          20.7093   -1.9139   -2.2893 H     211  UNK211      0.0507
    212 C          19.4583   -0.5551   -3.4324 C.3   212  UNL212      0.0167
    213 H          18.7813   -1.3571   -3.7606 H     213  UNK213      0.0325
    214 H          20.2213   -0.4247   -4.2187 H     214  UNK214      0.0325
    215 C          18.6803    0.7341   -3.2880 C.3   215  UNL215      0.1997
    216 O          19.2103    1.7894   -3.5965 O.3   216  HOH216     -0.2061
    217 N          17.4163    0.7011   -2.8202 N.3   217  UNL217     -0.2972
    218 H          16.9633   -0.1579   -2.5712 H     218  UNK218      0.1211
    219 H          16.9213    1.5640   -2.7274 H     219  UNK219      0.1211
    220 N          20.6934    1.1989   -1.0230 N.3   220  UNL220     -0.2745
    221 C          21.6434    2.2078   -0.5693 C.3   221  UNL221      0.0620
    222 C          22.6274    1.5638    0.3787 C.3   222  UNL222      0.2180
    223 O          23.8194    1.7586    0.2007 O.3   223  HOH223     -0.2042
    224 C          20.9484    3.4320    0.0845 C.3   224  UNL224     -0.0115
    225 C          20.0344    4.1475   -0.8857 C.3   225  UNL225      0.0605
    226 N          20.4254    4.6258   -2.0457 N.3   226  UNL226     -0.2889
    227 C          18.7234    4.4035   -0.7078 C.3   227  UNL227      0.0659
    228 C          19.4244    5.1747   -2.6571 C.3   228  UNL228      0.1060
    229 N          18.4004    5.0791   -1.9372 N.3   229  UNL229     -0.2120
    230 H          22.2024    2.5543   -1.4536 H     230  UNK230      0.0506
    231 H          19.7164    1.3590   -0.8892 H     231  UNK231      0.1253
    232 H          21.7134    4.1471    0.4271 H     232  UNK232      0.0301
    233 H          20.3734    3.1004    0.9646 H     233  UNK233      0.0301
    234 H          21.3844    4.5760   -2.4254 H     234  UNK234      0.1242
    235 H          18.0614    4.1732    0.1236 H     235  UNK235      0.0513
    236 H          19.4514    5.6481   -3.6392 H     236  UNK236      0.0673
    237 N          22.1715    0.8000    1.3578 N.3   237  UNL237     -0.2746
    238 C          23.1015    0.2202    2.3246 C.3   238  UNL238      0.0605
    239 C          24.0825   -0.6507    1.5716 C.3   239  UNL239      0.2179
    240 O          25.2675   -0.5824    1.8526 O.3   240  HOH240     -0.2042
    241 C          22.3975   -0.6374    3.4140 C.3   241  UNL241     -0.0309
    242 C          21.3515    0.1345    4.2779 C.3   242  UNL242     -0.0452
    243 C          20.6775   -0.8443    5.2799 C.3   243  UNL243     -0.0626
    244 C          21.9775    1.3298    5.0509 C.3   244  UNL244     -0.0626
    245 H          23.6715    1.0279    2.8120 H     245  UNK245      0.0506
    246 H          21.2175    0.4957    1.3520 H     246  UNK246      0.1253
    247 H          23.1705   -1.0530    4.0803 H     247  UNK247      0.0284
    248 H          21.8945   -1.4779    2.9125 H     248  UNK248      0.0284
    249 H          20.5535    0.5313    3.6273 H     249  UNK249      0.0296
    250 H          20.2015   -1.6801    4.7411 H     250  UNK250      0.0232
    251 H          19.9015   -0.3322    5.8666 H     251  UNK251      0.0232
    252 H          21.4255   -1.2583    5.9749 H     252  UNK252      0.0232
    253 H          22.8395    0.9893    5.6470 H     253  UNK253      0.0232
    254 H          21.2365    1.7759    5.7322 H     254  UNK254      0.0232
    255 H          22.3065    2.1198    4.3611 H     255  UNK255      0.0232
    256 N          23.6496   -1.4758    0.5530 N.3   256  UNL256     -0.2736
    257 C          24.8796   -2.0658    0.0320 C.3   257  UNL257      0.0730
    258 C          25.2876   -1.4067   -1.2652 C.3   258  UNL258      0.2744
    259 O          24.6306   -0.4958   -1.7688 O.3   259  HOH259     -0.1891
    260 C          24.6926   -3.5871   -0.2389 C.3   260  UNL260     -0.0254
    261 C          24.3566   -4.4662    0.9683 C.3   261  UNL261     -0.0145
    262 C          25.3536   -4.8500    1.8727 C.3   262  UNL262     -0.0249
    263 C          23.0386   -4.8820    1.1817 C.3   263  UNL263     -0.0249
    264 C          25.0326   -5.6374    2.9744 C.3   264  UNL264      0.0003
    265 C          22.7196   -5.6671    2.2865 C.3   265  UNL265      0.0003
    266 C          23.7176   -6.0439    3.1811 C.3   266  UNL266      0.1020
    267 O          23.4056   -6.8132    4.2668 O.3   267  HOH267     -0.3851
    268 H          23.1376   -0.6748    0.0409 H     268  UNK268      0.1253
    269 H          25.6916   -1.9063    0.7647 H     269  UNK269      0.0517
    270 H          23.9216   -3.7284   -1.0259 H     270  UNK270      0.0288
    271 H          25.6106   -3.9974   -0.7047 H     271  UNK271      0.0288
    272 H          26.3766   -4.5348    1.7198 H     272  UNK272      0.0313
    273 H          22.2556   -4.5834    0.4946 H     273  UNK273      0.0313
    274 H          25.7996   -5.9308    3.6730 H     274  UNK274      0.0336
    275 H          21.6966   -5.9764    2.4391 H     275  UNK275      0.0336
    276 H          22.4646   -6.9971    4.2467 H     276  UNK276      0.2103
    277 O          25.1666   -0.4312   -1.5564 O.3   277  HOH277     -0.3574
    278 H          25.8576    0.1040   -1.9342 H     278  UNK278      0.2131
@<TRIPOS>BOND
     1     1     2    1
     2     7     3    1
     3     2     6    1
     4     2     3    1
     5     3     8    1
     6     3     4    1
     7     4     5    2
     8     4     9    1
     9     9    20    1
    10     9    10    1
    11    19    10    1
    12    25    17    1
    13    10    11    1
    14    10    13    1
    15    23    15    1
    16    12    11    2
    17    17    15    1
    18    17    18    2
    19    15    14    1
    20    18    16    1
    21    14    13    1
    22    14    16    2
    23    13    22    1
    24    13    21    1
    25    16    24    1
    26    11    26    1
    27    26    30    1
    28    26    27    1
    29    31    27    1
    30    27    28    1
    31    27    32    1
    32    29    28    2
    33    38    37    1
    34    33    32    1
    35    32    34    1
    36    32    35    1
    37    37    35    1
    38    37    39    1
    39    35    36    2
    40    28    40    1
    41    53    46    1
    42    47    41    1
    43    40    46    1
    44    40    41    1
    45    49    44    1
    46    46    52    1
    47    46    45    1
    48    41    44    1
    49    41    42    1
    50    44    45    1
    51    44    48    1
    52    45    51    1
    53    45    50    1
    54    42    43    2
    55    42    54    1
    56    67    60    1
    57    61    55    1
    58    54    60    1
    59    54    55    1
    60    63    58    1
    61    60    66    1
    62    60    59    1
    63    55    58    1
    64    55    56    1
    65    58    59    1
    66    58    62    1
    67    59    65    1
    68    59    64    1
    69    56    57    2
    70    56    68    1
    71    68    78    1
    72    68    69    1
    73    77    69    1
    74    69    70    1
    75    69    72    1
    76    71    70    2
    77    81    73    1
    78    82    73    1
    79    73    72    1
    80    73    74    1
    81    72    80    1
    82    72    79    1
    83    75    74    2
    84    74    76    1
    85    76    83    1
    86    76    84    1
    87    70    85    1
    88    96    90    1
    89    97    90    1
    90    94    86    1
    91    85    93    1
    92    85    86    1
    93   101    92    1
    94    90    92    1
    95    90    89    1
    96    86    89    1
    97    86    87    1
    98    92   103    1
    99    92   102    1
   100   100    91    1
   101    89    91    1
   102    89    95    1
   103    87    88    2
   104    91    98    1
   105    91    99    1
   106    87   104    1
   107   104   114    1
   108   104   105    1
   109   113   105    1
   110   105   106    1
   111   105   108    1
   112   117   109    1
   113   106   107    2
   114   118   109    1
   115   109   108    1
   116   109   110    1
   117   121   111    1
   118   108   116    1
   119   108   115    1
   120   122   111    1
   121   111   110    1
   122   111   112    1
   123   110   120    1
   124   110   119    1
   125   124   112    1
   126   112   123    1
   127   112   125    1
   128   106   126    1
   129   137   146    1
   130   137   136    1
   131   144   134    1
   132   136   134    2
   133   136   135    1
   134   134   132    1
   135   145   135    1
   136   135   133    2
   137   132   142    1
   138   132   131    2
   139   139   127    1
   140   126   138    1
   141   126   127    1
   142   133   131    1
   143   133   143    1
   144   131   130    1
   145   127   130    1
   146   127   128    1
   147   130   141    1
   148   130   140    1
   149   128   129    2
   150   128   147    1
   151   147   156    1
   152   147   148    1
   153   165   154    1
   154   155   148    1
   155   148   149    1
   156   148   151    1
   157   149   150    2
   158   164   154    1
   159   159   152    1
   160   154   163    1
   161   154   152    1
   162   152   151    1
   163   152   153    1
   164   151   158    1
   165   151   157    1
   166   161   153    1
   167   153   160    1
   168   153   162    1
   169   149   166    1
   170   166   172    1
   171   166   167    1
   172   171   167    1
   173   167   168    1
   174   167   170    1
   175   169   168    2
   176   174   170    1
   177   170   173    1
   178   170   175    1
   179   168   176    1
   180   195   186    1
   181   194   185    1
   182   186   185    2
   183   186   184    1
   184   185   183    1
   185   193   184    1
   186   184   182    2
   187   183   192    1
   188   183   181    2
   189   188   177    1
   190   176   187    1
   191   176   177    1
   192   182   181    1
   193   182   191    1
   194   181   180    1
   195   177   180    1
   196   177   178    1
   197   180   190    1
   198   180   189    1
   199   178   179    2
   200   178   196    1
   201   196   202    1
   202   196   197    1
   203   201   197    1
   204   197   198    1
   205   197   200    1
   206   199   198    2
   207   204   200    1
   208   200   203    1
   209   200   205    1
   210   198   206    1
   211   206   210    1
   212   206   207    1
   213   211   207    1
   214   207   208    1
   215   207   212    1
   216   209   208    2
   217   218   217    1
   218   213   212    1
   219   212   214    1
   220   212   215    1
   221   217   215    1
   222   217   219    1
   223   215   216    2
   224   208   220    1
   225   220   231    1
   226   220   221    1
   227   230   221    1
   228   236   228    1
   229   221   222    1
   230   221   224    1
   231   234   226    1
   232   223   222    2
   233   228   226    1
   234   228   229    2
   235   226   225    1
   236   229   227    1
   237   225   224    1
   238   225   227    2
   239   224   233    1
   240   224   232    1
   241   227   235    1
   242   222   237    1
   243   237   246    1
   244   237   238    1
   245   255   244    1
   246   245   238    1
   247   238   239    1
   248   238   241    1
   249   239   240    2
   250   254   244    1
   251   249   242    1
   252   244   253    1
   253   244   242    1
   254   242   241    1
   255   242   243    1
   256   241   248    1
   257   241   247    1
   258   251   243    1
   259   243   250    1
   260   243   252    1
   261   239   256    1
   262   267   276    1
   263   267   266    1
   264   274   264    1
   265   266   264    2
   266   266   265    1
   267   264   262    1
   268   275   265    1
   269   265   263    2
   270   262   272    1
   271   262   261    2
   272   269   257    1
   273   256   268    1
   274   256   257    1
   275   263   261    1
   276   263   273    1
   277   261   260    1
   278   257   260    1
   279   257   258    1
   280   260   271    1
   281   260   270    1
   282   258   259    2
   283   258   277    1
   284   277   278    1
