@<TRIPOS>MOLECULE
ligand_1
 250 250 0 0 0
SMALL
GASTEIGER

@<TRIPOS>ATOM
      1 H          -0.9080    1.9825   -0.1171 H       1  UNK1        0.1186
      2 N           0.0000    1.5760    0.0000 N.3     2  UNL2       -0.3234
      3 C           1.2460    1.9085    0.6859 C.3     3  UNL3        0.0577
      4 C           1.5790    0.8740    1.7342 C.3     4  UNL4        0.2179
      5 O           0.8540   -0.1073    1.9420 O.3     5  HOH5       -0.2042
      6 C           1.1370    3.3468    1.3290 C.3     6  UNL6       -0.0273
      7 C           0.9900    4.4885    0.2922 C.3     7  UNL7       -0.0611
      8 C           2.3090    3.7793    2.2552 C.3     8  UNL8       -0.0611
      9 H          -0.5720    0.6941    0.2479 H       9  UNK9        0.1186
     10 H           2.0700    1.8993   -0.0513 H      10  UNK10       0.0505
     11 H           0.2200    3.3559    1.9573 H      11  UNK11       0.0312
     12 H           1.8920    4.6007   -0.3364 H      12  UNK12       0.0233
     13 H           0.1350    4.3208   -0.3856 H      13  UNK13       0.0233
     14 H           0.8060    5.4644    0.7812 H      14  UNK14       0.0233
     15 H           3.2820    3.7857    1.7270 H      15  UNK15       0.0233
     16 H           2.1580    4.7932    2.6748 H      16  UNK16       0.0233
     17 H           2.4190    3.1180    3.1342 H      17  UNK17       0.0233
     18 N           1.4781   -0.2728    1.5522 N.3    18  UNL18      -0.2749
     19 C           2.4411   -1.3204    1.8734 C.3    19  UNL19       0.0574
     20 C           3.4411   -1.4234    0.7480 C.3    20  UNL20       0.2174
     21 O           4.6311   -1.4149    1.0162 O.3    21  HOH21      -0.2042
     22 C           1.7631   -2.7017    2.0789 C.3    22  UNL22      -0.0454
     23 H           2.9561   -1.0479    2.8100 H      23  UNK23       0.0503
     24 H           0.5091   -0.5108    1.4772 H      24  UNK24       0.1253
     25 H           1.2441   -3.0260    1.1662 H      25  UNK25       0.0246
     26 H           1.0291   -2.6408    2.8983 H      26  UNK26       0.0246
     27 H           2.5191   -3.4587    2.3402 H      27  UNK27       0.0246
     28 N           2.9562   -1.4816   -0.5373 N.3    28  UNL28      -0.2774
     29 C           4.2042   -1.5550   -1.2909 C.3    29  UNL29       0.0487
     30 C           4.5252   -0.2275   -1.9367 C.3    30  UNL30       0.2148
     31 O           3.7952    0.7504   -1.8096 O.3    31  HOH31      -0.2045
     32 H           2.3752   -0.5728   -0.4794 H      32  UNK32       0.1250
     33 H           5.0372   -1.8458   -0.6258 H      33  UNK33       0.0469
     34 H           4.1332   -2.3322   -2.0741 H      34  UNK34       0.0469
     35 N           4.4343    0.7856   -1.3662 N.3    35  UNL35      -0.2748
     36 C           5.3813    1.8984   -1.3126 C.3    36  UNL36       0.0602
     37 C           6.3513    1.6511   -0.1806 C.3    37  UNL37       0.2179
     38 O           7.5363    1.8722   -0.3678 O.3    38  HOH38      -0.2042
     39 C           4.6763    3.2671   -1.1116 C.3    39  UNL39      -0.0332
     40 C           3.7893    3.6348   -2.3347 C.3    40  UNL40      -0.0504
     41 C           2.9243    4.8948   -2.0635 C.3    41  UNL41      -0.0418
     42 C           1.9633    5.1894   -3.2460 C.3    42  UNL42      -0.0196
     43 N           1.1003    6.3613   -2.9712 N.3    43  UNL43      -0.3784
     44 H           5.9403    1.9376   -2.2641 H      44  UNK44       0.0506
     45 H           3.4773    0.9475   -1.1252 H      45  UNK45       0.1253
     46 H           5.4353    4.0564   -0.9753 H      46  UNK46       0.0282
     47 H           4.0653    3.2220   -0.1967 H      47  UNK47       0.0282
     48 H           3.1173    2.7964   -2.5789 H      48  UNK48       0.0266
     49 H           4.4293    3.8119   -3.2170 H      49  UNK49       0.0266
     50 H           3.5833    5.7629   -1.8968 H      50  UNK50       0.0277
     51 H           2.3223    4.7384   -1.1544 H      51  UNK51       0.0277
     52 H           1.3273    4.3062   -3.4183 H      52  UNK52       0.0409
     53 H           2.5523    5.3650   -4.1635 H      53  UNK53       0.0409
     54 H           0.4983    6.2188   -2.0882 H      54  UNK54       0.1004
     55 H           0.4153    6.5420   -3.7889 H      55  UNK55       0.1004
     56 H           1.6833    7.2591   -2.8403 H      56  UNK56       0.1004
     57 N           5.9124    1.2097    1.0102 N.3    57  UNL57      -0.2744
     58 C           7.1584    1.0253    1.7498 C.3    58  UNL58       0.0625
     59 C           7.4914   -0.4408    1.8913 C.3    59  UNL59       0.2181
     60 O           6.7664   -1.3272    1.4218 O.3    60  HOH60      -0.2041
     61 C           7.0494    1.7170    3.1653 C.3    61  UNL61      -0.0270
     62 C           6.9024    3.2579    3.1013 C.3    62  UNL62      -0.0611
     63 C           8.2214    1.4553    4.1534 C.3    63  UNL63      -0.0611
     64 H           5.3404    0.3739    0.6351 H      64  UNK64       0.1253
     65 H           7.9824    1.4907    1.1780 H      65  UNK65       0.0508
     66 H           6.1324    1.3213    3.6534 H      66  UNK66       0.0312
     67 H           7.8044    3.7470    2.6907 H      67  UNK67       0.0233
     68 H           6.0474    3.5636    2.4736 H      68  UNK68       0.0233
     69 H           6.7184    3.6935    4.1022 H      69  UNK69       0.0233
     70 H           9.1944    1.7987    3.7521 H      70  UNK70       0.0233
     71 H           8.0704    1.9645    5.1254 H      71  UNK71       0.0233
     72 H           8.3314    0.3842    4.4043 H      72  UNK72       0.0233
     73 N           7.3905   -1.2043    1.0166 N.3    73  UNL73      -0.2749
     74 C           8.3535   -2.2143    0.5916 C.3    74  UNL74       0.0574
     75 C           9.3535   -1.5720   -0.3382 C.3    75  UNL75       0.2176
     76 O          10.5435   -1.7374   -0.1269 O.3    76  HOH76      -0.2042
     77 C           7.6755   -3.4063   -0.1361 C.3    77  UNL77      -0.0454
     78 H           8.8685   -2.6054    1.4851 H      78  UNK78       0.0503
     79 H           6.4215   -1.3389    0.8064 H      79  UNK79       0.1253
     80 H           7.1565   -3.0702   -1.0445 H      80  UNK80       0.0246
     81 H           6.9415   -3.8848    0.5319 H      81  UNK81       0.0246
     82 H           8.4315   -4.1548   -0.4207 H      82  UNK82       0.0246
     83 N           8.8686   -0.7928   -1.3621 N.3    83  UNL83      -0.2744
     84 C          10.1176   -0.3634   -1.9840 C.3    84  UNL84       0.0628
     85 C          10.4306    1.0717   -1.6363 C.3    85  UNL85       0.2182
     86 O          11.6366    1.6036   -2.1908 O.3    86  HOH86      -0.2041
     87 C          10.0926   -0.5987   -3.5488 C.3    87  UNL87      -0.0244
     88 C           9.7006   -2.0454   -3.9858 C.3    88  UNL88      -0.0518
     89 C          11.4446   -0.2339   -4.2385 C.3    89  UNL89      -0.0609
     90 C           9.3516   -2.2273   -5.4786 C.3    90  UNL90      -0.0650
     91 H           8.2816   -0.1321   -0.7423 H      91  UNK91       0.1253
     92 H          10.9326   -0.9749   -1.5546 H      92  UNK92       0.0508
     93 H           9.3146    0.0826   -3.9591 H      93  UNK93       0.0314
     94 H          10.4886   -2.7634   -3.6874 H      94  UNK94       0.0266
     95 H           8.8036   -2.3688   -3.4246 H      95  UNK95       0.0266
     96 H          11.4006   -0.3480   -5.3357 H      96  UNK96       0.0233
     97 H          11.7436    0.8184   -4.0818 H      97  UNK97       0.0233
     98 H          12.2766   -0.8686   -3.8820 H      98  UNK98       0.0233
     99 H           9.0156   -3.2635   -5.6849 H      99  UNK99       0.0230
    100 H           8.5356   -1.5543   -5.7931 H     100  UNK100      0.0230
    101 H          10.2146   -2.0361   -6.1413 H     101  UNK101      0.0230
    102 N          10.3467    1.4787   -0.5451 N.3   102  UNL102     -0.2746
    103 C          11.7627    1.5829   -0.2040 C.3   103  UNL103      0.0603
    104 C          11.9627    1.5453    1.2932 C.3   104  UNL104      0.2179
    105 O          11.0187    1.4423    2.0725 O.3   105  HOH105     -0.2042
    106 C          12.3317    2.8930   -0.8200 C.3   106  UNL106     -0.0321
    107 C          13.8797    3.0286   -0.7901 C.3   107  UNL107     -0.0388
    108 C          14.3547    4.3656   -1.3849 C.3   108  UNL108     -0.0011
    109 N          15.8457    4.4317   -1.3476 N.3   109  UNL109     -0.2830
    110 C          16.5807    5.4515   -1.7775 C.3   110  UNL110      0.1668
    111 N          16.0767    6.5402   -2.2855 N.3   111  UNL111     -0.2971
    112 N          17.8697    5.3613   -1.6890 N.3   112  UNL112     -0.2971
    113 H          10.0207    1.4856   -1.5180 H     113  UNK113      0.1253
    114 H          12.2837    0.7063   -0.6323 H     114  UNK114      0.0506
    115 H          11.9897    2.9776   -1.8717 H     115  UNK115      0.0282
    116 H          11.8637    3.7596   -0.3059 H     116  UNK116      0.0282
    117 H          14.2507    2.9401    0.2529 H     117  UNK117      0.0278
    118 H          14.3317    2.1778   -1.3418 H     118  UNK118      0.0278
    119 H          13.9757    4.4616   -2.4269 H     119  UNK119      0.0425
    120 H          13.9057    5.2035   -0.8088 H     120  UNK120      0.0425
    121 H          16.3967    3.6508   -0.9759 H     121  UNK121      0.1250
    122 H          16.7097    7.2799   -2.5931 H     122  UNK122      0.1213
    123 H          15.0547    6.5494   -2.3255 H     123  UNK123      0.1213
    124 H          18.2457    4.4997   -1.2900 H     124  UNK124      0.1213
    125 H          18.4187    6.1547   -2.0273 H     125  UNK125      0.1213
    126 N          11.8248    0.2810    1.5507 N.3   126  UNL126     -0.2746
    127 C          12.7718   -0.6039    2.2276 C.3   127  UNL127      0.0602
    128 C          13.7418   -1.1452    1.2031 C.3   128  UNL128      0.2179
    129 O          14.9268   -1.1934    1.4887 O.3   129  HOH129     -0.2042
    130 C          12.0668   -1.7795    2.9568 C.3   130  UNL130     -0.0332
    131 C          11.1798   -1.2715    4.1286 C.3   131  UNL131     -0.0504
    132 C          10.3148   -2.4093    4.7342 C.3   132  UNL132     -0.0418
    133 C           9.3538   -1.8717    5.8278 C.3   133  UNL133     -0.0196
    134 N           8.4908   -2.9444    6.3738 N.3   134  UNL134     -0.3784
    135 H          13.3308   -0.0201    2.9799 H     135  UNK135      0.0506
    136 H          10.8678    0.0018    1.4710 H     136  UNK136      0.1253
    137 H          12.8258   -2.4705    3.3618 H     137  UNK137      0.0282
    138 H          11.4558   -2.3352    2.2286 H     138  UNK138      0.0282
    139 H          10.5078   -0.4733    3.7744 H     139  UNK139      0.0266
    140 H          11.8198   -0.8378    4.9171 H     140  UNK140      0.0266
    141 H          10.9738   -3.1802    5.1667 H     141  UNK141      0.0277
    142 H           9.7128   -2.8762    3.9386 H     142  UNK142      0.0277
    143 H           8.7178   -1.0856    5.3898 H     143  UNK143      0.0409
    144 H           9.9428   -1.4140    6.6422 H     144  UNK144      0.0409
    145 H           7.8888   -3.4050    5.6071 H     145  UNK145      0.1004
    146 H           7.8058   -2.5550    7.1152 H     146  UNK146      0.1004
    147 H           9.0738   -3.7149    6.8529 H     147  UNK147      0.1004
    148 N          13.3029   -1.5760    0.0084 N.3   148  UNL148     -0.2744
    149 C          14.5799   -1.8217   -0.7122 C.3   149  UNL149      0.0655
    150 C          14.9599   -0.8879   -1.9152 C.3   150  UNL150      0.2181
    151 O          14.3079    0.0615   -2.2842 O.3   151  HOH151     -0.2042
    152 C          14.5179   -3.3088   -1.1101 C.3   152  UNL152      0.0322
    153 C          15.8659   -3.9683   -1.5104 C.3   153  UNL153      0.2944
    154 O          16.8899   -3.3525   -1.2036 O.3   154  HOH154     -0.1875
    155 O          15.7489   -5.0532   -2.0813 O.3   155  HOH155     -0.1875
    156 H          12.8429   -0.7504   -0.3475 H     156  UNK156      0.1253
    157 H          15.3889   -1.6967    0.0345 H     157  UNK157      0.0507
    158 H          14.1609   -3.9048   -0.2530 H     158  UNK158      0.0337
    159 H          13.7839   -3.4841   -1.9156 H     159  UNK159      0.0337
    160 N          14.7810    0.2645   -1.5536 N.3   160  UNL160     -0.2743
    161 C          16.0270    0.9965   -1.7663 C.3   161  UNL161      0.0628
    162 C          16.3600    1.8563   -0.5705 C.3   162  UNL162      0.2208
    163 O          15.6350    1.8965    0.4317 O.3   163  HOH163     -0.2039
    164 C          15.9180    1.8719   -3.0762 C.3   164  UNL164     -0.0270
    165 C          15.7710    1.0414   -4.3758 C.3   165  UNL165     -0.0611
    166 C          17.0900    2.8575   -3.3472 C.3   166  UNL166     -0.0611
    167 H          14.2090    0.3608   -0.6426 H     167  UNK167      0.1253
    168 H          16.8510    0.2682   -1.8810 H     168  UNK168      0.0508
    169 H          15.0010    2.4928   -2.9798 H     169  UNK169      0.0312
    170 H          16.6730    0.4405   -4.5919 H     170  UNK170      0.0233
    171 H          14.9160    0.3451   -4.3243 H     171  UNK171      0.0233
    172 H          15.5870    1.6873   -5.2558 H     172  UNK172      0.0233
    173 H          18.0630    2.3379   -3.4421 H     173  UNK173      0.0233
    174 H          16.9390    3.4414   -4.2762 H     174  UNK174      0.0233
    175 H          17.2000    3.6131   -2.5477 H     175  UNK175      0.0233
    176 N          16.2591    1.4844    0.5294 N.3   176  UNL176     -0.2603
    177 C          17.6701    1.5002    1.1113 C.3   177  UNL177      0.0631
    178 C          18.0211    0.2703    1.9433 C.3   178  UNL178      0.2181
    179 O          17.1461   -0.6225    2.0725 O.3   179  HOH179     -0.2042
    180 C          17.7411    2.7183    2.0222 C.3   180  UNL180     -0.0319
    181 C          16.3001    2.7628    2.5563 C.3   181  UNL181     -0.0385
    182 C          15.4471    2.4354    1.3260 C.3   182  UNL182      0.0022
    183 H          18.3981    1.5555    0.3146 H     183  UNK183      0.0508
    184 H          18.4191    2.5038    2.8651 H     184  UNK184      0.0282
    185 H          17.9311    3.6133    1.4164 H     185  UNK185      0.0282
    186 H          16.0321    1.9100    3.1992 H     186  UNK186      0.0278
    187 H          16.1451    3.7772    2.9472 H     187  UNK187      0.0278
    188 H          14.5091    1.9471    1.6420 H     188  UNK188      0.0428
    189 H          15.2921    3.3528    0.7377 H     189  UNK189      0.0428
    190 N          17.7372   -0.7783    1.3704 N.3   190  UNL190     -0.2746
    191 C          18.6472   -1.9225    1.3445 C.3   191  UNL191      0.0604
    192 C          19.6632   -1.7227    0.2450 C.3   192  UNL192      0.2179
    193 O          20.8392   -1.9561    0.4793 O.3   193  HOH193     -0.2042
    194 C          17.9042   -3.2728    1.1440 C.3   194  UNL194     -0.0280
    195 C          16.9652   -3.5997    2.3393 C.3   195  UNL195      0.0140
    196 C          16.1982   -4.8855    2.1483 C.3   196  UNL196      0.2929
    197 O          16.4212   -5.5911    1.1291 O.3   197  HOH197     -0.1876
    198 O          15.3552   -5.2015    3.0286 O.3   198  HOH198     -0.1876
    199 H          19.1812   -1.9739    2.3080 H     199  UNK199      0.0506
    200 H          16.7662   -0.9202    1.1770 H     200  UNK200      0.1253
    201 H          18.6482   -4.0806    1.0518 H     201  UNK201      0.0283
    202 H          17.3232   -3.2301    0.2111 H     202  UNK202      0.0283
    203 H          16.2302   -2.7945    2.4871 H     203  UNK203      0.0321
    204 H          17.5632   -3.6898    3.2576 H     204  UNK204      0.0321
    205 N          19.2153   -1.2150   -1.0038 N.3   205  UNL205     -0.2743
    206 C          20.4643   -1.0272   -1.7359 C.3   206  UNL206      0.0628
    207 C          20.7773    0.4396   -1.9060 C.3   207  UNL207      0.2182
    208 O          21.9833    0.7468   -2.6103 O.3   208  HOH208     -0.2041
    209 C          20.4393   -1.7893   -3.1227 C.3   209  UNL209     -0.0244
    210 C          20.0473   -3.2978   -3.0323 C.3   210  UNL210     -0.0518
    211 C          21.7913   -1.6856   -3.8960 C.3   211  UNL211     -0.0609
    212 C          19.6983   -3.9848   -4.3700 C.3   212  UNL212     -0.0650
    213 H          18.6283   -0.3807   -0.6508 H     213  UNK213      0.1253
    214 H          21.2793   -1.4525   -1.1214 H     214  UNK214      0.0508
    215 H          19.6613   -1.2919   -3.7433 H     215  UNK215      0.0314
    216 H          20.8353   -3.8683   -2.5039 H     216  UNK216      0.0266
    217 H          19.1503   -3.4071   -2.3938 H     217  UNK217      0.0266
    218 H          21.7473   -2.1721   -4.8859 H     218  UNK218      0.0233
    219 H          22.0903   -0.6440   -4.1129 H     219  UNK219      0.0233
    220 H          22.6233   -2.1578   -3.3419 H     220  UNK220      0.0233
    221 H          19.3623   -5.0284   -4.2051 H     221  UNK221      0.0230
    222 H          18.8823   -3.4622   -4.8979 H     222  UNK222      0.0230
    223 H          20.5613   -4.0346   -5.0579 H     223  UNK223      0.0230
    224 N          20.6934    1.1989   -1.0230 N.3   224  UNL224     -0.2726
    225 C          21.9184    1.9393   -0.7352 C.3   225  UNL225      0.0834
    226 C          22.3434    1.7464    0.6988 C.3   226  UNL226      0.2199
    227 O          21.7014    1.0448    1.4817 O.3   227  HOH227     -0.2041
    228 C          21.7494    3.4392   -1.0842 C.3   228  UNL228      0.0639
    229 O          20.8534    4.1192   -0.1994 O.3   229  HOH229     -0.3933
    230 H          20.1944    0.6056   -0.2722 H     230  UNK230      0.1253
    231 H          22.7244    1.5214   -1.3680 H     231  UNK231      0.0529
    232 H          22.7344    3.9456   -1.0386 H     232  UNK232      0.0574
    233 H          21.4094    3.5728   -2.1289 H     233  UNK233      0.0574
    234 H          19.9864    3.7167   -0.3031 H     234  UNK234      0.2095
    235 N          22.1715    0.8000    1.3578 N.3   235  UNL235     -0.2773
    236 C          23.4195    0.3766    1.9856 C.3   236  UNL236      0.0487
    237 C          23.7405   -1.0581    1.6379 C.3   237  UNL237      0.2146
    238 O          23.0105   -1.7310    0.9172 O.3   238  HOH238     -0.2045
    239 H          21.5905    0.1363    0.7345 H     239  UNK239      0.1250
    240 H          24.2525    1.0244    1.6581 H     240  UNK240      0.0469
    241 H          23.3485    0.4770    3.0843 H     241  UNK241      0.0469
    242 N          23.6496   -1.4758    0.5530 N.3   242  UNL242     -0.2765
    243 C          24.8976   -2.0208    0.0273 C.3   243  UNL243      0.0609
    244 C          25.2186   -1.4301   -1.3256 C.3   244  UNL244      0.2712
    245 O          24.4886   -0.6037   -1.8636 O.3   245  HOH245     -0.1894
    246 H          23.0686   -0.7470    0.0071 H     246  UNK246      0.1250
    247 H          25.7306   -1.8103    0.7220 H     247  UNK247      0.0480
    248 H          24.8266   -3.1203   -0.0640 H     248  UNK248      0.0480
    249 O          25.1666   -0.4312   -1.5564 O.3   249  HOH249     -0.3576
    250 H          25.8576    0.1040   -1.9342 H     250  UNK250      0.2130
@<TRIPOS>BOND
     1     1     2    1
     2    13     7    1
     3    12     7    1
     4    10     3    1
     5     2     9    1
     6     2     3    1
     7     7    14    1
     8     7     6    1
     9     3     6    1
    10     3     4    1
    11     6    11    1
    12     6     8    1
    13    15     8    1
    14     4     5    2
    15     8    16    1
    16     8    17    1
    17     4    18    1
    18    18    24    1
    19    18    19    1
    20    23    19    1
    21    19    20    1
    22    19    22    1
    23    21    20    2
    24    26    22    1
    25    22    25    1
    26    22    27    1
    27    20    28    1
    28    33    29    1
    29    28    32    1
    30    28    29    1
    31    29    34    1
    32    29    30    1
    33    30    31    2
    34    30    35    1
    35    35    45    1
    36    35    36    1
    37    44    36    1
    38    36    37    1
    39    36    39    1
    40    48    40    1
    41    37    38    2
    42    49    40    1
    43    40    39    1
    44    40    41    1
    45    52    42    1
    46    39    47    1
    47    39    46    1
    48    53    42    1
    49    42    41    1
    50    42    43    1
    51    41    51    1
    52    41    50    1
    53    55    43    1
    54    43    54    1
    55    43    56    1
    56    37    57    1
    57    68    62    1
    58    67    62    1
    59    65    58    1
    60    57    64    1
    61    57    58    1
    62    62    69    1
    63    62    61    1
    64    58    61    1
    65    58    59    1
    66    61    66    1
    67    61    63    1
    68    70    63    1
    69    59    60    2
    70    63    71    1
    71    63    72    1
    72    59    73    1
    73    73    79    1
    74    73    74    1
    75    78    74    1
    76    74    75    1
    77    74    77    1
    78    76    75    2
    79    81    77    1
    80    77    80    1
    81    77    82    1
    82    75    83    1
    83    94    88    1
    84    95    88    1
    85    92    84    1
    86    83    91    1
    87    83    84    1
    88    99    90    1
    89    88    90    1
    90    88    87    1
    91    84    87    1
    92    84    85    1
    93    90   101    1
    94    90   100    1
    95    98    89    1
    96    87    89    1
    97    87    93    1
    98    85    86    2
    99    89    96    1
   100    89    97    1
   101    85   102    1
   102   113   102    1
   103   119   108    1
   104   115   106    1
   105   118   107    1
   106   114   103    1
   107   102   103    1
   108   123   111    1
   109   122   111    1
   110   111   110    2
   111   108   109    1
   112   108   107    1
   113   108   120    1
   114   110   109    1
   115   110   112    1
   116   125   112    1
   117   106   107    1
   118   106   103    1
   119   106   116    1
   120   109   121    1
   121   112   124    1
   122   107   117    1
   123   103   104    1
   124   104   105    2
   125   104   126    1
   126   126   136    1
   127   126   127    1
   128   135   127    1
   129   127   128    1
   130   127   130    1
   131   139   131    1
   132   128   129    2
   133   140   131    1
   134   131   130    1
   135   131   132    1
   136   143   133    1
   137   130   138    1
   138   130   137    1
   139   144   133    1
   140   133   132    1
   141   133   134    1
   142   132   142    1
   143   132   141    1
   144   146   134    1
   145   134   145    1
   146   134   147    1
   147   128   148    1
   148   157   149    1
   149   148   156    1
   150   148   149    1
   151   158   152    1
   152   149   152    1
   153   149   150    1
   154   152   153    1
   155   152   159    1
   156   154   153    2
   157   153   155    1
   158   150   151    2
   159   150   160    1
   160   171   165    1
   161   170   165    1
   162   168   161    1
   163   160   167    1
   164   160   161    1
   165   165   172    1
   166   165   164    1
   167   161   164    1
   168   161   162    1
   169   164   169    1
   170   164   166    1
   171   173   166    1
   172   162   163    2
   173   166   174    1
   174   166   175    1
   175   162   176    1
   176   189   182    1
   177   183   177    1
   178   176   182    1
   179   176   177    1
   180   185   180    1
   181   182   188    1
   182   182   181    1
   183   177   180    1
   184   177   178    1
   185   180   181    1
   186   180   184    1
   187   181   187    1
   188   181   186    1
   189   178   179    2
   190   178   190    1
   191   190   200    1
   192   190   191    1
   193   199   191    1
   194   191   192    1
   195   191   194    1
   196   203   195    1
   197   192   193    2
   198   204   195    1
   199   195   194    1
   200   195   196    1
   201   194   202    1
   202   194   201    1
   203   198   196    2
   204   196   197    1
   205   192   205    1
   206   216   210    1
   207   217   210    1
   208   214   206    1
   209   205   213    1
   210   205   206    1
   211   221   212    1
   212   210   212    1
   213   210   209    1
   214   206   209    1
   215   206   207    1
   216   212   223    1
   217   212   222    1
   218   220   211    1
   219   209   211    1
   220   209   215    1
   221   207   208    2
   222   211   218    1
   223   211   219    1
   224   207   224    1
   225   231   225    1
   226   224   230    1
   227   224   225    1
   228   225   228    1
   229   225   226    1
   230   233   228    1
   231   228   232    1
   232   228   229    1
   233   226   227    2
   234   234   229    1
   235   226   235    1
   236   240   236    1
   237   235   239    1
   238   235   236    1
   239   236   241    1
   240   236   237    1
   241   237   238    2
   242   237   242    1
   243   247   243    1
   244   242   246    1
   245   242   243    1
   246   243   248    1
   247   243   244    1
   248   244   245    2
   249   244   249    1
   250   249   250    1
