ligand_3
     RDKit          2D

302308  0  0  0  0  0  0  0  0999 V2000
    3.7135   -4.1165    0.0000 H   0  0  0  0  0  0  0  0  0  0  0  0
    2.7479   -3.6032    0.0000 N   0  0  0  0  0  0  0  0  0  0  0  0
    1.3213   -4.0667    0.0000 C   0  0  0  0  0  0  0  0  0  0  0  0
    1.7849   -5.4933    0.0000 C   0  0  0  0  0  0  0  0  0  0  0  0
    1.3931   -6.5142    0.0000 O   0  0  0  0  0  0  0  0  0  0  0  0
    0.8578   -2.6401    0.0000 C   0  0  0  0  0  0  0  0  0  0  0  0
    0.3943   -1.2135    0.0000 C   0  0  0  0  0  0  0  0  0  0  0  0
    1.2760   -0.0000    0.0000 C   0  0  0  0  0  0  0  0  0  0  0  0
   -1.0323   -0.7500    0.0000 C   0  0  0  0  0  0  0  0  0  0  0  0
    0.3943    1.2135    0.0000 N   0  0  0  0  0  0  0  0  0  0  0  0
   -1.0323    0.7500    0.0000 C   0  0  0  0  0  0  0  0  0  0  0  0
   -2.3313   -1.5000    0.0000 C   0  0  0  0  0  0  0  0  0  0  0  0
   -2.3313    1.5000    0.0000 C   0  0  0  0  0  0  0  0  0  0  0  0
   -3.6304   -0.7500    0.0000 C   0  0  0  0  0  0  0  0  0  0  0  0
   -3.6304    0.7500    0.0000 C   0  0  0  0  0  0  0  0  0  0  0  0
    3.8451   -2.5803    0.0000 H   0  0  0  0  0  0  0  0  0  0  0  0
    0.5460   -3.4606    0.0000 H   0  0  0  0  0  0  0  0  0  0  0  0
    2.3303   -2.3539    0.0000 H   0  0  0  0  0  0  0  0  0  0  0  0
   -0.1082   -2.8279    0.0000 H   0  0  0  0  0  0  0  0  0  0  0  0
    2.7648    0.1828    0.0000 H   0  0  0  0  0  0  0  0  0  0  0  0
    1.0283    2.5730    0.0000 H   0  0  0  0  0  0  0  0  0  0  0  0
   -2.3313   -3.0000    0.0000 H   0  0  0  0  0  0  0  0  0  0  0  0
   -2.5142    2.9888    0.0000 H   0  0  0  0  0  0  0  0  0  0  0  0
   -4.9294   -1.5000    0.0000 H   0  0  0  0  0  0  0  0  0  0  0  0
   -4.9294    1.5000    0.0000 H   0  0  0  0  0  0  0  0  0  0  0  0
    3.2521   -5.8051    0.0000 N   0  0  0  0  0  0  0  0  0  0  0  0
    3.7156   -7.2317    0.0000 C   0  0  0  0  0  0  0  0  0  0  0  0
    2.2890   -7.6953    0.0000 C   0  0  0  0  0  0  0  0  0  0  0  0
    0.9491   -7.8600    0.0000 O   0  0  0  0  0  0  0  0  0  0  0  0
    5.1422   -6.7682    0.0000 C   0  0  0  0  0  0  0  0  0  0  0  0
    6.5688   -6.3047    0.0000 C   0  0  0  0  0  0  0  0  0  0  0  0
    7.0323   -4.8781    0.0000 C   0  0  0  0  0  0  0  0  0  0  0  0
    7.7823   -7.1864    0.0000 C   0  0  0  0  0  0  0  0  0  0  0  0
    8.5323   -4.8781    0.0000 N   0  0  0  0  0  0  0  0  0  0  0  0
    8.9958   -6.3047    0.0000 C   0  0  0  0  0  0  0  0  0  0  0  0
    7.9391   -8.6781    0.0000 C   0  0  0  0  0  0  0  0  0  0  0  0
   10.3662   -6.9148    0.0000 C   0  0  0  0  0  0  0  0  0  0  0  0
    9.3094   -9.2882    0.0000 C   0  0  0  0  0  0  0  0  0  0  0  0
   10.5230   -8.4066    0.0000 C   0  0  0  0  0  0  0  0  0  0  0  0
    3.9838   -4.9925    0.0000 H   0  0  0  0  0  0  0  0  0  0  0  0
    3.6370   -8.7297    0.0000 H   0  0  0  0  0  0  0  0  0  0  0  0
    4.8560   -5.2958    0.0000 H   0  0  0  0  0  0  0  0  0  0  0  0
    4.8816   -8.2454    0.0000 H   0  0  0  0  0  0  0  0  0  0  0  0
    6.1506   -3.6646    0.0000 H   0  0  0  0  0  0  0  0  0  0  0  0
    9.2595   -3.5661    0.0000 H   0  0  0  0  0  0  0  0  0  0  0  0
    6.8421   -9.7012    0.0000 H   0  0  0  0  0  0  0  0  0  0  0  0
   11.6781   -6.1876    0.0000 H   0  0  0  0  0  0  0  0  0  0  0  0
    9.4662  -10.7800    0.0000 H   0  0  0  0  0  0  0  0  0  0  0  0
   11.8933   -9.0167    0.0000 H   0  0  0  0  0  0  0  0  0  0  0  0
    1.9772   -9.1625    0.0000 N   0  0  0  0  0  0  0  0  0  0  0  0
    0.5506   -9.6260    0.0000 C   0  0  0  0  0  0  0  0  0  0  0  0
    0.0871   -8.1994    0.0000 C   0  0  0  0  0  0  0  0  0  0  0  0
    0.2069   -7.2226    0.0000 O   0  0  0  0  0  0  0  0  0  0  0  0
    1.0141  -11.0526    0.0000 C   0  0  0  0  0  0  0  0  0  0  0  0
    1.4776  -12.4792    0.0000 S   0  0  0  0  0  0  0  0  0  0  0  0
    3.2059  -10.0228    0.0000 H   0  0  0  0  0  0  0  0  0  0  0  0
   -0.9219   -9.9122    0.0000 H   0  0  0  0  0  0  0  0  0  0  0  0
   -0.4822  -11.1571    0.0000 H   0  0  0  0  0  0  0  0  0  0  0  0
    2.2997  -11.8254    0.0000 H   0  0  0  0  0  0  0  0  0  0  0  0
    0.9402  -13.8796    0.0000 H   0  0  0  0  0  0  0  0  0  0  0  0
   -1.3802   -7.8876    0.0000 N   0  0  0  0  0  0  0  0  0  0  0  0
   -1.8437   -6.4610    0.0000 C   0  0  0  0  0  0  0  0  0  0  0  0
   -0.4171   -5.9974    0.0000 C   0  0  0  0  0  0  0  0  0  0  0  0
    0.2359   -6.4547    0.0000 O   0  0  0  0  0  0  0  0  0  0  0  0
   -3.2703   -6.9245    0.0000 C   0  0  0  0  0  0  0  0  0  0  0  0
   -4.6969   -7.3880    0.0000 C   0  0  0  0  0  0  0  0  0  0  0  0
   -6.1234   -7.8515    0.0000 C   0  0  0  0  0  0  0  0  0  0  0  0
   -5.1604   -5.9614    0.0000 C   0  0  0  0  0  0  0  0  0  0  0  0
   -2.4777   -5.1015    0.0000 H   0  0  0  0  0  0  0  0  0  0  0  0
   -2.2405   -9.1163    0.0000 H   0  0  0  0  0  0  0  0  0  0  0  0
   -3.7338   -5.4979    0.0000 H   0  0  0  0  0  0  0  0  0  0  0  0
   -4.0431   -8.2101    0.0000 H   0  0  0  0  0  0  0  0  0  0  0  0
   -4.7755   -8.8860    0.0000 H   0  0  0  0  0  0  0  0  0  0  0  0
   -7.6198   -7.9561    0.0000 H   0  0  0  0  0  0  0  0  0  0  0  0
   -6.2021   -9.3495    0.0000 H   0  0  0  0  0  0  0  0  0  0  0  0
   -7.3215   -6.9490    0.0000 H   0  0  0  0  0  0  0  0  0  0  0  0
   -5.4466   -4.4890    0.0000 H   0  0  0  0  0  0  0  0  0  0  0  0
   -6.5948   -5.5227    0.0000 H   0  0  0  0  0  0  0  0  0  0  0  0
   -4.1185   -4.8823    0.0000 H   0  0  0  0  0  0  0  0  0  0  0  0
   -0.1052   -4.5302    0.0000 N   0  0  0  0  0  0  0  0  0  0  0  0
    1.3213   -4.0667    0.0000 C   0  0  0  0  0  0  0  0  0  0  0  0
    1.7849   -5.4933    0.0000 C   0  0  0  0  0  0  0  0  0  0  0  0
    0.6528   -6.4773    0.0000 O   0  0  0  0  0  0  0  0  0  0  0  0
    0.8578   -2.6401    0.0000 C   0  0  0  0  0  0  0  0  0  0  0  0
    0.3943   -1.2135    0.0000 C   0  0  0  0  0  0  0  0  0  0  0  0
   -0.0692    0.2131    0.0000 C   0  0  0  0  0  0  0  0  0  0  0  0
    0.6349    1.5375    0.0000 O   0  0  0  0  0  0  0  0  0  0  0  0
   -1.4174    0.8707    0.0000 O   0  0  0  0  0  0  0  0  0  0  0  0
    2.7479   -3.6032    0.0000 H   0  0  0  0  0  0  0  0  0  0  0  0
   -1.5941   -4.3476    0.0000 H   0  0  0  0  0  0  0  0  0  0  0  0
    2.0235   -1.6960    0.0000 H   0  0  0  0  0  0  0  0  0  0  0  0
   -0.6401   -2.5615    0.0000 H   0  0  0  0  0  0  0  0  0  0  0  0
   -0.7713   -2.1576    0.0000 H   0  0  0  0  0  0  0  0  0  0  0  0
    1.7537   -0.5796    0.0000 H   0  0  0  0  0  0  0  0  0  0  0  0
    3.2521   -5.8051    0.0000 N   0  0  0  0  0  0  0  0  0  0  0  0
    3.7156   -7.2317    0.0000 C   0  0  0  0  0  0  0  0  0  0  0  0
    2.2890   -7.6953    0.0000 C   0  0  0  0  0  0  0  0  0  0  0  0
    0.8886   -7.1578    0.0000 O   0  0  0  0  0  0  0  0  0  0  0  0
    5.1422   -6.7682    0.0000 C   0  0  0  0  0  0  0  0  0  0  0  0
    6.5688   -6.3047    0.0000 S   0  0  0  0  0  0  0  0  0  0  0  0
    3.6148   -4.3497    0.0000 H   0  0  0  0  0  0  0  0  0  0  0  0
    4.0018   -8.7042    0.0000 H   0  0  0  0  0  0  0  0  0  0  0  0
    5.2468   -8.2646    0.0000 H   0  0  0  0  0  0  0  0  0  0  0  0
    5.2208   -5.2703    0.0000 H   0  0  0  0  0  0  0  0  0  0  0  0
    7.7975   -7.1650    0.0000 H   0  0  0  0  0  0  0  0  0  0  0  0
    1.9772   -9.1625    0.0000 N   0  0  0  0  0  0  0  0  0  0  0  0
    0.5506   -9.6260    0.0000 C   0  0  0  0  0  0  0  0  0  0  0  0
    0.0871   -8.1994    0.0000 C   0  0  0  0  0  0  0  0  0  0  0  0
    0.9474   -6.9707    0.0000 O   0  0  0  0  0  0  0  0  0  0  0  0
    1.0141  -11.0526    0.0000 C   0  0  0  0  0  0  0  0  0  0  0  0
    1.4776  -12.4792    0.0000 C   0  0  0  0  0  0  0  0  0  0  0  0
    2.9042  -12.9427    0.0000 C   0  0  0  0  0  0  0  0  0  0  0  0
    0.5960  -13.6927    0.0000 C   0  0  0  0  0  0  0  0  0  0  0  0
    2.9042  -14.4427    0.0000 N   0  0  0  0  0  0  0  0  0  0  0  0
    1.4776  -14.9062    0.0000 C   0  0  0  0  0  0  0  0  0  0  0  0
   -0.8958  -13.8495    0.0000 C   0  0  0  0  0  0  0  0  0  0  0  0
    0.8675  -16.2765    0.0000 C   0  0  0  0  0  0  0  0  0  0  0  0
   -1.5059  -15.2198    0.0000 C   0  0  0  0  0  0  0  0  0  0  0  0
   -0.6243  -16.4333    0.0000 C   0  0  0  0  0  0  0  0  0  0  0  0
    3.3776   -9.6999    0.0000 H   0  0  0  0  0  0  0  0  0  0  0  0
   -0.9474   -9.5474    0.0000 H   0  0  0  0  0  0  0  0  0  0  0  0
    2.4866  -10.7664    0.0000 H   0  0  0  0  0  0  0  0  0  0  0  0
   -0.4631  -10.7920    0.0000 H   0  0  0  0  0  0  0  0  0  0  0  0
    4.1177  -12.0610    0.0000 H   0  0  0  0  0  0  0  0  0  0  0  0
    4.0012  -15.4657    0.0000 H   0  0  0  0  0  0  0  0  0  0  0  0
   -1.9189  -12.7525    0.0000 H   0  0  0  0  0  0  0  0  0  0  0  0
    1.7492  -17.4901    0.0000 H   0  0  0  0  0  0  0  0  0  0  0  0
   -2.9977  -15.3766    0.0000 H   0  0  0  0  0  0  0  0  0  0  0  0
   -1.2344  -17.8037    0.0000 H   0  0  0  0  0  0  0  0  0  0  0  0
   -1.3802   -7.8876    0.0000 N   0  0  0  0  0  0  0  0  0  0  0  0
   -1.8437   -6.4610    0.0000 C   0  0  0  0  0  0  0  0  0  0  0  0
   -0.4171   -5.9974    0.0000 C   0  0  0  0  0  0  0  0  0  0  0  0
    0.8116   -6.8578    0.0000 O   0  0  0  0  0  0  0  0  0  0  0  0
   -3.2703   -6.9245    0.0000 C   0  0  0  0  0  0  0  0  0  0  0  0
   -4.6969   -7.3880    0.0000 S   0  0  0  0  0  0  0  0  0  0  0  0
   -1.9176   -9.2880    0.0000 H   0  0  0  0  0  0  0  0  0  0  0  0
   -1.7651   -4.9630    0.0000 H   0  0  0  0  0  0  0  0  0  0  0  0
   -3.3748   -5.4281    0.0000 H   0  0  0  0  0  0  0  0  0  0  0  0
   -2.9841   -8.3969    0.0000 H   0  0  0  0  0  0  0  0  0  0  0  0
   -4.4621   -8.8695    0.0000 H   0  0  0  0  0  0  0  0  0  0  0  0
   -0.1052   -4.5302    0.0000 N   0  0  0  0  0  0  0  0  0  0  0  0
    1.3213   -4.0667    0.0000 C   0  0  0  0  0  0  0  0  0  0  0  0
    1.7849   -5.4933    0.0000 C   0  0  0  0  0  0  0  0  0  0  0  0
    1.2474   -6.8937    0.0000 O   0  0  0  0  0  0  0  0  0  0  0  0
    0.8578   -2.6401    0.0000 C   0  0  0  0  0  0  0  0  0  0  0  0
    0.3943   -1.2135    0.0000 C   0  0  0  0  0  0  0  0  0  0  0  0
   -1.0729   -0.9017    0.0000 C   0  0  0  0  0  0  0  0  0  0  0  0
    1.3980   -0.0988    0.0000 C   0  0  0  0  0  0  0  0  0  0  0  0
   -1.5364    0.5249    0.0000 C   0  0  0  0  0  0  0  0  0  0  0  0
    0.9345    1.3278    0.0000 C   0  0  0  0  0  0  0  0  0  0  0  0
   -0.5328    1.6396    0.0000 C   0  0  0  0  0  0  0  0  0  0  0  0
   -0.9963    3.0662    0.0000 O   0  0  0  0  0  0  0  0  0  0  0  0
   -1.3340   -3.6699    0.0000 H   0  0  0  0  0  0  0  0  0  0  0  0
    2.8177   -3.9621    0.0000 H   0  0  0  0  0  0  0  0  0  0  0  0
   -0.5766   -2.2014    0.0000 H   0  0  0  0  0  0  0  0  0  0  0  0
    2.2173   -2.0061    0.0000 H   0  0  0  0  0  0  0  0  0  0  0  0
   -1.7771   -2.2261    0.0000 H   0  0  0  0  0  0  0  0  0  0  0  0
    2.8163   -0.5872    0.0000 H   0  0  0  0  0  0  0  0  0  0  0  0
   -3.0355    0.4725    0.0000 H   0  0  0  0  0  0  0  0  0  0  0  0
    1.9382    2.4425    0.0000 H   0  0  0  0  0  0  0  0  0  0  0  0
    0.1358    4.0503    0.0000 H   0  0  0  0  0  0  0  0  0  0  0  0
    3.2521   -5.8051    0.0000 N   0  0  0  0  0  0  0  0  0  0  0  0
    3.7156   -7.2317    0.0000 C   0  0  0  0  0  0  0  0  0  0  0  0
    2.2890   -7.6953    0.0000 C   0  0  0  0  0  0  0  0  0  0  0  0
    1.3050   -6.5632    0.0000 O   0  0  0  0  0  0  0  0  0  0  0  0
    5.1422   -6.7682    0.0000 C   0  0  0  0  0  0  0  0  0  0  0  0
    6.5688   -6.3047    0.0000 C   0  0  0  0  0  0  0  0  0  0  0  0
    5.6057   -8.1948    0.0000 C   0  0  0  0  0  0  0  0  0  0  0  0
    7.9954   -5.8412    0.0000 C   0  0  0  0  0  0  0  0  0  0  0  0
    4.4957   -4.9664    0.0000 H   0  0  0  0  0  0  0  0  0  0  0  0
    4.3496   -8.5912    0.0000 H   0  0  0  0  0  0  0  0  0  0  0  0
    5.5810   -5.3338    0.0000 H   0  0  0  0  0  0  0  0  0  0  0  0
    7.5129   -7.4703    0.0000 H   0  0  0  0  0  0  0  0  0  0  0  0
    5.7738   -5.0327    0.0000 H   0  0  0  0  0  0  0  0  0  0  0  0
    5.8919   -9.6672    0.0000 H   0  0  0  0  0  0  0  0  0  0  0  0
    7.1037   -8.2734    0.0000 H   0  0  0  0  0  0  0  0  0  0  0  0
    7.0782   -7.9086    0.0000 H   0  0  0  0  0  0  0  0  0  0  0  0
    9.4917   -5.7366    0.0000 H   0  0  0  0  0  0  0  0  0  0  0  0
    7.7092   -4.3687    0.0000 H   0  0  0  0  0  0  0  0  0  0  0  0
    8.7903   -7.1132    0.0000 H   0  0  0  0  0  0  0  0  0  0  0  0
    1.9772   -9.1625    0.0000 N   0  0  0  0  0  0  0  0  0  0  0  0
    0.5506   -9.6260    0.0000 C   0  0  0  0  0  0  0  0  0  0  0  0
    0.0871   -8.1994    0.0000 C   0  0  0  0  0  0  0  0  0  0  0  0
    1.2192   -7.2154    0.0000 O   0  0  0  0  0  0  0  0  0  0  0  0
    1.0141  -11.0526    0.0000 C   0  0  0  0  0  0  0  0  0  0  0  0
    1.4776  -12.4792    0.0000 C   0  0  0  0  0  0  0  0  0  0  0  0
   -0.4125  -11.5161    0.0000 C   0  0  0  0  0  0  0  0  0  0  0  0
    3.4660   -9.3451    0.0000 H   0  0  0  0  0  0  0  0  0  0  0  0
   -0.8089  -10.2600    0.0000 H   0  0  0  0  0  0  0  0  0  0  0  0
    2.4485  -11.4913    0.0000 H   0  0  0  0  0  0  0  0  0  0  0  0
    1.5822  -13.9755    0.0000 H   0  0  0  0  0  0  0  0  0  0  0  0
    0.3120  -13.4232    0.0000 H   0  0  0  0  0  0  0  0  0  0  0  0
    2.7497  -11.6842    0.0000 H   0  0  0  0  0  0  0  0  0  0  0  0
   -1.8849  -11.8023    0.0000 H   0  0  0  0  0  0  0  0  0  0  0  0
   -0.4911  -13.0141    0.0000 H   0  0  0  0  0  0  0  0  0  0  0  0
   -0.1263  -12.9886    0.0000 H   0  0  0  0  0  0  0  0  0  0  0  0
   -1.3802   -7.8876    0.0000 N   0  0  0  0  0  0  0  0  0  0  0  0
   -1.8437   -6.4610    0.0000 C   0  0  0  0  0  0  0  0  0  0  0  0
   -0.4171   -5.9974    0.0000 C   0  0  0  0  0  0  0  0  0  0  0  0
    0.8116   -6.8578    0.0000 O   0  0  0  0  0  0  0  0  0  0  0  0
   -3.2703   -6.9245    0.0000 C   0  0  0  0  0  0  0  0  0  0  0  0
   -4.6969   -7.3880    0.0000 C   0  0  0  0  0  0  0  0  0  0  0  0
   -6.1234   -7.8515    0.0000 C   0  0  0  0  0  0  0  0  0  0  0  0
   -7.5500   -8.3151    0.0000 C   0  0  0  0  0  0  0  0  0  0  0  0
   -8.9766   -8.7786    0.0000 N   0  0  0  0  0  0  0  0  0  0  0  0
   -2.1299   -4.9885    0.0000 H   0  0  0  0  0  0  0  0  0  0  0  0
   -1.5628   -9.3764    0.0000 H   0  0  0  0  0  0  0  0  0  0  0  0
   -3.0096   -5.4473    0.0000 H   0  0  0  0  0  0  0  0  0  0  0  0
   -3.3489   -8.4224    0.0000 H   0  0  0  0  0  0  0  0  0  0  0  0
   -4.4362   -5.9108    0.0000 H   0  0  0  0  0  0  0  0  0  0  0  0
   -4.0629   -8.7475    0.0000 H   0  0  0  0  0  0  0  0  0  0  0  0
   -5.8373   -9.3240    0.0000 H   0  0  0  0  0  0  0  0  0  0  0  0
   -7.0675   -6.6859    0.0000 H   0  0  0  0  0  0  0  0  0  0  0  0
   -8.1840   -6.9556    0.0000 H   0  0  0  0  0  0  0  0  0  0  0  0
   -7.0865   -9.7417    0.0000 H   0  0  0  0  0  0  0  0  0  0  0  0
  -10.4032   -9.2421    0.0000 H   0  0  0  0  0  0  0  0  0  0  0  0
   -8.5131  -10.2052    0.0000 H   0  0  0  0  0  0  0  0  0  0  0  0
   -9.4401   -7.3520    0.0000 H   0  0  0  0  0  0  0  0  0  0  0  0
   -0.1052   -4.5302    0.0000 N   0  0  0  0  0  0  0  0  0  0  0  0
    1.3213   -4.0667    0.0000 C   0  0  0  0  0  0  0  0  0  0  0  0
    1.7849   -5.4933    0.0000 C   0  0  0  0  0  0  0  0  0  0  0  0
    0.9245   -6.7220    0.0000 O   0  0  0  0  0  0  0  0  0  0  0  0
    0.8578   -2.6401    0.0000 C   0  0  0  0  0  0  0  0  0  0  0  0
    0.3943   -1.2135    0.0000 C   0  0  0  0  0  0  0  0  0  0  0  0
   -0.0692    0.2131    0.0000 C   0  0  0  0  0  0  0  0  0  0  0  0
   -0.5328    1.6396    0.0000 C   0  0  0  0  0  0  0  0  0  0  0  0
   -0.9963    3.0662    0.0000 N   0  0  0  0  0  0  0  0  0  0  0  0
    2.5934   -3.2717    0.0000 H   0  0  0  0  0  0  0  0  0  0  0  0
   -1.5056   -3.9928    0.0000 H   0  0  0  0  0  0  0  0  0  0  0  0
    1.7604   -1.4420    0.0000 H   0  0  0  0  0  0  0  0  0  0  0  0
   -0.4278   -1.8673    0.0000 H   0  0  0  0  0  0  0  0  0  0  0  0
    1.5599   -0.2695    0.0000 H   0  0  0  0  0  0  0  0  0  0  0  0
   -1.1036   -1.1349    0.0000 H   0  0  0  0  0  0  0  0  0  0  0  0
    0.5166    1.5939    0.0000 H   0  0  0  0  0  0  0  0  0  0  0  0
   -1.3548    0.9859    0.0000 H   0  0  0  0  0  0  0  0  0  0  0  0
    0.5091    2.7188    0.0000 H   0  0  0  0  0  0  0  0  0  0  0  0
   -1.9672    2.0784    0.0000 H   0  0  0  0  0  0  0  0  0  0  0  0
   -1.4598    4.4928    0.0000 H   0  0  0  0  0  0  0  0  0  0  0  0
    0.3632    3.7002    0.0000 H   0  0  0  0  0  0  0  0  0  0  0  0
   -2.4687    2.7801    0.0000 H   0  0  0  0  0  0  0  0  0  0  0  0
    3.2521   -5.8051    0.0000 N   0  0  0  0  0  0  0  0  0  0  0  0
    3.7156   -7.2317    0.0000 C   0  0  0  0  0  0  0  0  0  0  0  0
    2.2890   -7.6953    0.0000 C   0  0  0  0  0  0  0  0  0  0  0  0
    1.9518   -6.2337    0.0000 O   0  0  0  0  0  0  0  0  0  0  0  0
    5.1422   -6.7682    0.0000 C   0  0  0  0  0  0  0  0  0  0  0  0
    6.5688   -6.3047    0.0000 C   0  0  0  0  0  0  0  0  0  0  0  0
    7.9954   -5.8412    0.0000 C   0  0  0  0  0  0  0  0  0  0  0  0
    9.4220   -5.3776    0.0000 C   0  0  0  0  0  0  0  0  0  0  0  0
   10.8485   -4.9141    0.0000 N   0  0  0  0  0  0  0  0  0  0  0  0
    4.6597   -8.3974    0.0000 H   0  0  0  0  0  0  0  0  0  0  0  0
    3.9562   -4.4807    0.0000 H   0  0  0  0  0  0  0  0  0  0  0  0
    6.2213   -7.8101    0.0000 H   0  0  0  0  0  0  0  0  0  0  0  0
    5.9150   -5.4826    0.0000 H   0  0  0  0  0  0  0  0  0  0  0  0
    6.4642   -4.8083    0.0000 H   0  0  0  0  0  0  0  0  0  0  0  0
    6.1053   -4.8781    0.0000 H   0  0  0  0  0  0  0  0  0  0  0  0
    8.0740   -4.3432    0.0000 H   0  0  0  0  0  0  0  0  0  0  0  0
    9.0745   -6.8830    0.0000 H   0  0  0  0  0  0  0  0  0  0  0  0
    9.1358   -3.9052    0.0000 H   0  0  0  0  0  0  0  0  0  0  0  0
   10.2169   -6.6497    0.0000 H   0  0  0  0  0  0  0  0  0  0  0  0
   12.2751   -4.4506    0.0000 H   0  0  0  0  0  0  0  0  0  0  0  0
   10.3850   -3.4875    0.0000 H   0  0  0  0  0  0  0  0  0  0  0  0
   11.4825   -6.2735    0.0000 H   0  0  0  0  0  0  0  0  0  0  0  0
    1.9772   -9.1625    0.0000 N   0  0  0  0  0  0  0  0  0  0  0  0
    0.5506   -9.6260    0.0000 C   0  0  0  0  0  0  0  0  0  0  0  0
    0.0871   -8.1994    0.0000 C   0  0  0  0  0  0  0  0  0  0  0  0
    1.5868   -8.2259    0.0000 O   0  0  0  0  0  0  0  0  0  0  0  0
    1.0141  -11.0526    0.0000 C   0  0  0  0  0  0  0  0  0  0  0  0
    1.4776  -12.4792    0.0000 C   0  0  0  0  0  0  0  0  0  0  0  0
    1.9412  -13.9058    0.0000 C   0  0  0  0  0  0  0  0  0  0  0  0
    1.2370  -15.2302    0.0000 O   0  0  0  0  0  0  0  0  0  0  0  0
    3.4084  -14.2176    0.0000 N   0  0  0  0  0  0  0  0  0  0  0  0
   -0.6151  -10.5701    0.0000 H   0  0  0  0  0  0  0  0  0  0  0  0
    3.4660   -8.9794    0.0000 H   0  0  0  0  0  0  0  0  0  0  0  0
   -0.0278  -12.1317    0.0000 H   0  0  0  0  0  0  0  0  0  0  0  0
    2.5120  -11.1312    0.0000 H   0  0  0  0  0  0  0  0  0  0  0  0
    2.9740  -12.3746    0.0000 H   0  0  0  0  0  0  0  0  0  0  0  0
    2.9042  -12.0156    0.0000 H   0  0  0  0  0  0  0  0  0  0  0  0
    4.0423  -15.5771    0.0000 H   0  0  0  0  0  0  0  0  0  0  0  0
    4.4121  -13.1029    0.0000 H   0  0  0  0  0  0  0  0  0  0  0  0
   -1.3802   -7.8876    0.0000 N   0  0  0  0  0  0  0  0  0  0  0  0
   -1.8437   -6.4610    0.0000 C   0  0  0  0  0  0  0  0  0  0  0  0
   -0.4171   -5.9974    0.0000 C   0  0  0  0  0  0  0  0  0  0  0  0
   -1.1447   -7.3092    0.0000 O   0  0  0  0  0  0  0  0  0  0  0  0
   -1.1971   -9.3763    0.0000 H   0  0  0  0  0  0  0  0  0  0  0  0
   -2.7878   -5.2953    0.0000 H   0  0  0  0  0  0  0  0  0  0  0  0
   -3.2703   -6.9245    0.0000 C   0  0  0  0  0  0  0  0  0  0  0  0
   -3.7090   -8.3589    0.0000 H   0  0  0  0  0  0  0  0  0  0  0  0
   -4.0652   -5.6525    0.0000 H   0  0  0  0  0  0  0  0  0  0  0  0
   -4.6969   -7.3880    0.0000 C   0  0  0  0  0  0  0  0  0  0  0  0
   -4.4621   -8.8695    0.0000 O   0  0  0  0  0  0  0  0  0  0  0  0
   -5.8116   -6.3843    0.0000 N   0  0  0  0  0  0  0  0  0  0  0  0
   -7.3079   -6.4889    0.0000 H   0  0  0  0  0  0  0  0  0  0  0  0
   -5.6809   -4.8900    0.0000 H   0  0  0  0  0  0  0  0  0  0  0  0
   -0.1052   -4.5302    0.0000 N   0  0  0  0  0  0  0  0  0  0  0  0
    1.3213   -4.0667    0.0000 C   0  0  0  0  0  0  0  0  0  0  0  0
    2.7479   -3.6032    0.0000 C   0  0  0  0  0  0  0  0  0  0  0  0
    3.5650   -2.3452    0.0000 O   0  0  0  0  0  0  0  0  0  0  0  0
   -1.5940   -4.7133    0.0000 H   0  0  0  0  0  0  0  0  0  0  0  0
    0.3976   -5.2485    0.0000 H   0  0  0  0  0  0  0  0  0  0  0  0
   -0.1206   -3.6535    0.0000 H   0  0  0  0  0  0  0  0  0  0  0  0
    3.8627   -4.6069    0.0000 O   0  0  0  0  0  0  0  0  0  0  0  0
    5.2892   -4.1433    0.0000 H   0  0  0  0  0  0  0  0  0  0  0  0
  1  2  1  0
 25 15  1  0
 23 13  1  0
 15 13  2  0
 15 14  1  0
 13 11  1  0
 21 10  1  0
 24 14  1  0
 14 12  2  0
 11 10  1  0
 11  9  2  0
 10  8  1  0
 12  9  1  0
 12 22  1  0
  9  7  1  0
  3 17  1  1
  2 16  1  0
  2  3  1  0
  8 20  1  0
  8  7  2  0
  7  6  1  0
  3  6  1  0
  3  4  1  0
  6 19  1  0
  6 18  1  0
  4  5  2  0
  4 26  1  0
 49 39  1  0
 47 37  1  0
 39 37  2  0
 39 38  1  0
 37 35  1  0
 45 34  1  0
 48 38  1  0
 38 36  2  0
 35 34  1  0
 35 33  2  0
 34 32  1  0
 36 33  1  0
 36 46  1  0
 33 31  1  0
 27 41  1  6
 26 40  1  0
 26 27  1  0
 32 44  1  0
 32 31  2  0
 31 30  1  0
 27 30  1  0
 27 28  1  0
 30 43  1  0
 30 42  1  0
 28 29  2  0
 28 50  1  0
 51 57  1  6
 50 56  1  0
 50 51  1  0
 58 54  1  0
 51 54  1  0
 51 52  1  0
 54 55  1  0
 54 59  1  0
 52 53  2  0
 55 60  1  0
 52 61  1  0
 61 70  1  0
 61 62  1  0
 79 68  1  0
 62 69  1  6
 62 63  1  0
 62 65  1  0
 63 64  2  0
 78 68  1  0
 73 66  1  0
 68 77  1  0
 68 66  1  0
 66 65  1  0
 66 67  1  0
 65 72  1  0
 65 71  1  0
 75 67  1  0
 67 74  1  0
 67 76  1  0
 63 80  1  0
 80 90  1  0
 80 81  1  0
 81 89  1  6
 81 82  1  0
 81 84  1  0
 93 85  1  0
 82 83  2  0
 94 85  1  0
 85 84  1  0
 85 86  1  0
 84 92  1  0
 84 91  1  0
 88 86  2  0
 86 87  1  0
 82 95  1  0
 96102  1  6
 95101  1  0
 95 96  1  0
103 99  1  0
 96 99  1  0
 96 97  1  0
 99100  1  0
 99104  1  0
 97 98  2  0
100105  1  0
 97106  1  0
129119  1  0
127117  1  0
119117  2  0
119118  1  0
117115  1  0
125114  1  0
128118  1  0
118116  2  0
115114  1  0
115113  2  0
114112  1  0
116113  1  0
116126  1  0
113111  1  0
107121  1  6
106120  1  0
106107  1  0
112124  1  0
112111  2  0
111110  1  0
107110  1  0
107108  1  0
110123  1  0
110122  1  0
108109  2  0
108130  1  0
131137  1  6
130136  1  0
130131  1  0
138134  1  0
131134  1  0
131132  1  0
134135  1  0
134139  1  0
132133  2  0
135140  1  0
132141  1  0
152161  1  0
152151  1  0
159149  1  0
151149  1  0
151150  2  0
149147  2  0
160150  1  0
150148  1  0
147157  1  0
147146  1  0
142154  1  6
141153  1  0
141142  1  0
148146  2  0
148158  1  0
146145  1  0
142145  1  0
142143  1  0
145156  1  0
145155  1  0
143144  2  0
143162  1  0
173167  1  0
174167  1  0
163171  1  6
162170  1  0
162163  1  0
178169  1  0
167169  1  0
167166  1  0
163166  1  0
163164  1  0
169180  1  0
169179  1  0
177168  1  0
166168  1  0
166172  1  1
164165  2  0
168175  1  0
168176  1  0
164181  1  0
192186  1  0
191186  1  0
182189  1  6
181188  1  0
181182  1  0
186193  1  0
186185  1  0
182185  1  0
182183  1  0
185190  1  0
185187  1  0
194187  1  0
183184  2  0
187195  1  0
187196  1  0
183197  1  0
197207  1  0
197198  1  0
198206  1  6
198199  1  0
198201  1  0
210202  1  0
199200  2  0
211202  1  0
202201  1  0
202203  1  0
214204  1  0
201209  1  0
201208  1  0
215204  1  0
204203  1  0
204205  1  0
203213  1  0
203212  1  0
217205  1  0
205216  1  0
205218  1  0
199219  1  0
219229  1  0
219220  1  0
220228  1  6
220221  1  0
220223  1  0
232224  1  0
221222  2  0
233224  1  0
224223  1  0
224225  1  0
236226  1  0
223231  1  0
223230  1  0
237226  1  0
226225  1  0
226227  1  0
225235  1  0
225234  1  0
239227  1  0
227238  1  0
227240  1  0
221241  1  0
241251  1  0
241242  1  0
242250  1  6
242243  1  0
242245  1  0
254246  1  0
243244  2  0
255246  1  0
246245  1  0
246247  1  0
258248  1  0
245253  1  0
245252  1  0
259248  1  0
248247  1  0
248249  1  0
247257  1  0
247256  1  0
261249  1  0
249260  1  0
249262  1  0
243263  1  0
263273  1  0
263264  1  0
264272  1  6
264265  1  0
264267  1  0
266265  2  0
276268  1  0
277268  1  0
268267  1  0
268269  1  0
267275  1  0
267274  1  0
270269  2  0
269271  1  0
271278  1  0
271279  1  0
265280  1  0
280284  1  0
280281  1  0
281285  1  6
281282  1  0
281286  1  0
283282  2  0
292291  1  0
287286  1  0
286288  1  0
286289  1  0
291289  1  0
291293  1  0
289290  2  0
282294  1  0
299295  1  0
294298  1  0
294295  1  0
295300  1  0
295296  1  0
296297  2  0
296301  1  0
301302  1  0
M  CHG  4  87  -1 205   1 227   1 249   1
M  END
>  <_TriposChargeType>  (1) 
GASTEIGER

$$$$
