@<TRIPOS>MOLECULE
ligand_3
 302 308 0 0 0
SMALL
GASTEIGER

@<TRIPOS>ATOM
      1 H          -0.9080    1.9825   -0.1171 H       1  UNK1        0.1186
      2 N           0.0000    1.5760    0.0000 N.3     2  UNL2       -0.3236
      3 C           1.2460    1.9169    0.6802 C.3     3  UNL3        0.0560
      4 C           1.6010    0.8744    1.7138 C.3     4  UNL4        0.2176
      5 O           0.8940   -0.1134    1.9126 O.3     5  HOH5       -0.2042
      6 C           1.0880    3.3029    1.3654 C.3     6  UNL6       -0.0252
      7 C           0.9170    4.4792    0.3997 C.3     7  UNL7        0.0051
      8 C          -0.3130    5.0530    0.0101 C.3     8  UNL8        0.0310
      9 C           1.8850    5.1321   -0.3341 C.3     9  UNL9        0.0103
     10 N          -0.1330    6.0645   -0.9538 N.3    10  UNL10      -0.3033
     11 C           1.2380    6.0919   -1.1527 C.3    11  UNL11       0.0491
     12 C           3.2930    4.9631   -0.3979 C.3    12  UNL12      -0.0254
     13 C           1.9960    6.9008   -2.0293 C.3    13  UNL13      -0.0122
     14 C           4.0220    5.7778   -1.2617 C.3    14  UNL14      -0.0305
     15 C           3.3840    6.7335   -2.0682 C.3    15  UNL15      -0.0293
     16 H          -0.5170    0.7498    0.2221 H      16  UNK16       0.1186
     17 H           2.0670    1.9461   -0.0603 H      17  UNK17       0.0503
     18 H           0.2380    3.2825    2.0763 H      18  UNK18       0.0288
     19 H           1.9700    3.5181    2.0003 H      19  UNK19       0.0288
     20 H          -1.2750    4.7209    0.3785 H      20  UNK20       0.0482
     21 H          -0.8510    6.6170   -1.4311 H      21  UNK21       0.1229
     22 H           3.7910    4.2227    0.2113 H      22  UNK22       0.0313
     23 H           1.5090    7.6344   -2.6492 H      23  UNK23       0.0326
     24 H           5.0950    5.6674   -1.3150 H      24  UNK24       0.0309
     25 H           3.9750    7.3530   -2.7258 H      25  UNK25       0.0310
     26 N           1.4781   -0.2728    1.5522 N.3    26  UNL26      -0.2746
     27 C           2.7241   -1.0017    1.7702 C.3    27  UNL27       0.0608
     28 C           3.0791   -1.8393    0.5646 C.3    28  UNL28       0.2179
     29 O           2.3721   -1.8642   -0.4427 O.3    29  HOH29      -0.2042
     30 C           2.5661   -1.9164    3.0168 C.3    30  UNL30      -0.0249
     31 C           2.3951   -1.1689    4.3424 C.3    31  UNL31       0.0051
     32 C           1.1651   -0.8845    4.9750 C.3    32  UNL32       0.0310
     33 C           3.3631   -0.5592    5.1125 C.3    33  UNL33       0.0103
     34 N           1.3451   -0.1102    6.1380 N.3    34  UNL34      -0.3033
     35 C           2.7161    0.0809    6.1995 C.3    35  UNL35       0.0491
     36 C           4.7711   -0.4671    4.9570 C.3    36  UNL36      -0.0254
     37 C           3.4741    0.8043    7.1479 C.3    37  UNL37      -0.0122
     38 C           5.5001    0.2427    5.9090 C.3    38  UNL38      -0.0305
     39 C           4.8621    0.8716    6.9899 C.3    39  UNL39      -0.0293
     40 H           0.9611   -0.3485    0.7000 H      40  UNK40       0.1253
     41 H           3.5451   -0.2774    1.9271 H      41  UNK41       0.0506
     42 H           1.7161   -2.6130    2.8736 H      42  UNK42       0.0288
     43 H           3.4481   -2.5790    3.1188 H      43  UNK43       0.0288
     44 H           0.2031   -1.1898    4.5841 H      44  UNK44       0.0482
     45 H           0.6271    0.2643    6.7648 H      45  UNK45       0.1229
     46 H           5.2691   -0.9389    4.1224 H      46  UNK46       0.0313
     47 H           2.9871    1.2879    7.9777 H      47  UNK47       0.0326
     48 H           6.5731    0.3143    5.8095 H      48  UNK48       0.0309
     49 H           5.4531    1.4121    7.7138 H      49  UNK49       0.0310
     50 N           2.9562   -1.4816   -0.5373 N.3    50  UNL50      -0.2738
     51 C           4.1962   -1.5740   -1.3041 C.3    51  UNL51       0.0690
     52 C           4.5602   -0.2392   -1.9050 C.3    52  UNL52       0.2187
     53 O           5.7612   -0.2065   -2.6801 O.3    53  HOH53      -0.2041
     54 C           4.0322   -2.6754   -2.3697 C.3    54  UNL54       0.0104
     55 S           5.5912   -2.9650   -3.2347 S.3    55  UNL55      -0.1766
     56 H           2.4092   -0.5556   -0.4437 H      56  UNK56       0.1253
     57 H           5.0112   -1.8564   -0.6129 H      57  UNK57       0.0514
     58 H           3.7152   -3.6309   -1.9129 H      58  UNK58       0.0390
     59 H           3.2462   -2.4117   -3.1080 H      59  UNK59       0.0390
     60 H           5.2612   -2.3523   -4.3690 H      60  UNK60       0.1017
     61 N           4.4343    0.7856   -1.3662 N.3    61  UNL61      -0.2746
     62 C           5.3643    1.9126   -1.3395 C.3    62  UNL62       0.0605
     63 C           6.3453    1.6879   -0.2103 C.3    63  UNL63       0.2179
     64 O           7.5303    1.8985   -0.4086 O.3    64  HOH64      -0.2042
     65 C           4.6603    3.2834   -1.1319 C.3    65  UNL65      -0.0309
     66 C           3.6143    3.6533   -2.2297 C.3    66  UNL66      -0.0452
     67 C           2.9403    5.0081   -1.8734 C.3    67  UNL67      -0.0626
     68 C           4.2403    3.7352   -3.6508 C.3    68  UNL68      -0.0626
     69 H           5.9343    1.9375   -2.2825 H      69  UNK69       0.0506
     70 H           3.4803    0.9308   -1.0987 H      70  UNK70       0.1253
     71 H           5.4333    4.0680   -1.0995 H      71  UNK71       0.0284
     72 H           4.1573    3.2624   -0.1533 H      72  UNK72       0.0284
     73 H           2.8163    2.8917   -2.2534 H      73  UNK73       0.0296
     74 H           2.4643    4.9523   -0.8805 H      74  UNK74       0.0232
     75 H           2.1643    5.2653   -2.6085 H      75  UNK75       0.0232
     76 H           3.6883    5.8169   -1.8567 H      76  UNK76       0.0232
     77 H           5.1023    4.4217   -3.6491 H      77  UNK77       0.0232
     78 H           3.4993    4.1073   -4.3752 H      78  UNK78       0.0232
     79 H           4.5693    2.7453   -3.9970 H      79  UNK79       0.0232
     80 N           5.9124    1.2097    1.0102 N.3    80  UNL80      -0.2746
     81 C           6.8224    0.9802    2.1314 C.3    81  UNL81       0.0604
     82 C           7.8384   -0.0661    1.7387 C.3    82  UNL82       0.2179
     83 O           9.0144    0.1228    2.0103 O.3    83  HOH83      -0.2042
     84 C           6.0794    0.5422    3.4243 C.3    84  UNL84      -0.0280
     85 C           5.1404    1.6600    3.9591 C.3    85  UNL85       0.0140
     86 C           4.3734    1.2428    5.1903 C.3    86  UNL86       0.2929
     87 O           4.5964    0.1142    5.7029 O.3    87  HOH87      -0.1876
     88 O           3.5304    2.0527    5.6582 O.3    88  HOH88      -0.1876
     89 H           7.3564    1.9191    2.3538 H      89  UNK89       0.0506
     90 H           4.9414    0.9941    1.1153 H      90  UNK90       0.1253
     91 H           6.8234    0.3074    4.2028 H      91  UNK91       0.0283
     92 H           5.4984   -0.3681    3.2160 H      92  UNK92       0.0283
     93 H           4.4054    1.9491    3.1932 H      93  UNK93       0.0321
     94 H           5.7384    2.5475    4.2114 H      94  UNK94       0.0321
     95 N           7.3905   -1.2043    1.0166 N.3    95  UNL95      -0.2738
     96 C           8.6305   -1.9151    0.7145 C.3    96  UNL96       0.0690
     97 C           8.9945   -1.7707   -0.7422 C.3    97  UNL97       0.2187
     98 O          10.1955   -2.4263   -1.1569 O.3    98  HOH98      -0.2041
     99 C           8.4665   -3.3880    1.1381 C.3    99  UNL99       0.0104
    100 S          10.0255   -4.2822    0.9579 S.3   100  UNL100     -0.1766
    101 H           6.8435   -0.6616    0.2605 H     101  UNK101      0.1253
    102 H           9.4455   -1.4567    1.3038 H     102  UNK102      0.0514
    103 H           8.1495   -3.4682    2.1941 H     103  UNK103      0.0390
    104 H           7.6805   -3.8966    0.5415 H     104  UNK104      0.0390
    105 H           9.6955   -4.9601   -0.1385 H     105  UNK105      0.1017
    106 N           8.8686   -0.7928   -1.3621 N.3   106  UNL106     -0.2746
    107 C          10.1146   -0.3764   -1.9989 C.3   107  UNL107      0.0608
    108 C          10.4696    1.0413   -1.6179 C.3   108  UNL108      0.2179
    109 O           9.7626    1.7100   -0.8642 O.3   109  HOH109     -0.2042
    110 C           9.9566   -0.4815   -3.5414 C.3   110  UNL110     -0.0249
    111 C           9.7856   -1.9079   -4.0722 C.3   111  UNL111      0.0051
    112 C           8.5556   -2.5332   -4.3721 C.3   112  UNL112      0.0310
    113 C          10.7536   -2.8705   -4.2674 C.3   113  UNL113      0.0103
    114 N           8.7356   -3.8751   -4.7614 N.3   114  UNL114     -0.3033
    115 C          10.1066   -4.0608   -4.6851 C.3   115  UNL115      0.0491
    116 C          12.1616   -2.8406   -4.0892 C.3   116  UNL116     -0.0254
    117 C          10.8646   -5.2253   -4.9432 C.3   117  UNL117     -0.0122
    118 C          12.8906   -3.9971   -4.3588 C.3   118  UNL118     -0.0305
    119 C          12.2526   -5.1748   -4.7791 C.3   119  UNL119     -0.0293
    120 H           8.3516   -0.1852   -0.7597 H     120  UNK120      0.1253
    121 H          10.9356   -1.0311   -1.6515 H     121  UNK121      0.0506
    122 H           9.1066    0.1432   -3.8814 H     122  UNK122      0.0288
    123 H          10.8386   -0.0410   -4.0468 H     123  UNK123      0.0288
    124 H           7.5936   -2.0478   -4.2704 H     124  UNK124      0.0482
    125 H           8.0176   -4.5656   -4.9988 H     125  UNK125      0.1229
    126 H          12.6596   -1.9416   -3.7558 H     126  UNK126      0.0313
    127 H          10.3776   -6.1301   -5.2654 H     127  UNK127      0.0326
    128 H          13.9636   -3.9876   -4.2365 H     128  UNK128      0.0309
    129 H          12.8436   -6.0548   -4.9836 H     129  UNK129      0.0310
    130 N          10.3467    1.4787   -0.5451 N.3   130  UNL130     -0.2738
    131 C          11.5867    2.0439   -0.0188 C.3   131  UNL131      0.0690
    132 C          11.9507    1.4116    1.3014 C.3   132  UNL132      0.2187
    133 O          13.1517    1.8866    1.9147 O.3   133  HOH133     -0.2041
    134 C          11.4227    3.5730    0.0851 C.3   134  UNL134      0.0104
    135 S          12.9817    4.3522    0.5593 S.3   135  UNL135     -0.1766
    136 H           9.7997    0.7107   -0.0193 H     136  UNK136      0.1253
    137 H          12.4017    1.8139   -0.7291 H     137  UNK137      0.0514
    138 H          11.1057    4.0085   -0.8804 H     138  UNK138      0.0390
    139 H          10.6367    3.8477    0.8193 H     139  UNK139      0.0390
    140 H          12.6517    4.6157    1.8212 H     140  UNK140      0.1017
    141 N          11.8248    0.2810    1.5507 N.3   141  UNL141     -0.2746
    142 C          13.0548   -0.3368    2.0384 C.3   142  UNL142      0.0608
    143 C          13.4628   -1.4958    1.1586 C.3   143  UNL143      0.2179
    144 O          12.8058   -1.8289    0.1725 O.3   144  HOH144     -0.2042
    145 C          12.8678   -0.8746    3.4870 C.3   145  UNL145     -0.0265
    146 C          12.5318    0.1565    4.5673 C.3   146  UNL146     -0.0146
    147 C          13.5288    0.9780    5.1062 C.3   147  UNL147     -0.0249
    148 C          11.2138    0.2924    5.0145 C.3   148  UNL148     -0.0249
    149 C          13.2078    1.9216    6.0774 C.3   149  UNL149      0.0003
    150 C          10.8948    1.2395    5.9840 C.3   150  UNL150      0.0003
    151 C          11.8928    2.0526    6.5143 C.3   151  UNL151      0.1020
    152 O          11.5808    2.9837    7.4648 O.3   152  HOH152     -0.3851
    153 H          11.3128   -0.0801    0.6712 H     153  UNK153      0.1253
    154 H          13.8668    0.4126    2.0121 H     154  UNK154      0.0506
    155 H          12.0968   -1.6742    3.4858 H     155  UNK155      0.0287
    156 H          13.7858   -1.4061    3.8077 H     156  UNK156      0.0287
    157 H          14.5518    0.8838    4.7688 H     157  UNK157      0.0313
    158 H          10.4308   -0.3305    4.5981 H     158  UNK158      0.0313
    159 H          13.9748    2.5567    6.4906 H     159  UNK159      0.0336
    160 H           9.8718    1.3345    6.3155 H     160  UNK160      0.0336
    161 H          10.6398    2.9312    7.6422 H     161  UNK161      0.2103
    162 N          13.3029   -1.5760    0.0084 N.3   162  UNL162     -0.2743
    163 C          14.5519   -1.9011   -0.6740 C.3   163  UNL163      0.0628
    164 C          14.8649   -0.8843   -1.7447 C.3   164  UNL164      0.2182
    165 O          16.0709   -1.0999   -2.4822 O.3   165  HOH165     -0.2041
    166 C          14.5269   -3.3750   -1.2500 C.3   166  UNL166     -0.0244
    167 C          14.1349   -4.4749   -0.2136 C.3   167  UNL167     -0.0518
    168 C          15.8789   -3.7910   -1.9100 C.3   168  UNL168     -0.0609
    169 C          13.7859   -5.8596   -0.8000 C.3   169  UNL169     -0.0650
    170 H          12.7159   -0.7094   -0.2555 H     170  UNK170      0.1253
    171 H          15.3669   -1.8337    0.0703 H     171  UNK171      0.0508
    172 H          13.7489   -3.3910   -2.0451 H     172  UNK172      0.0314
    173 H          14.9229   -4.5741    0.5576 H     173  UNK173      0.0266
    174 H          13.2379   -4.1496    0.3465 H     174  UNK174      0.0266
    175 H          15.8349   -4.7990   -2.3580 H     175  UNK175      0.0233
    176 H          16.1779   -3.1306   -2.7441 H     176  UNK176      0.0233
    177 H          16.7109   -3.7983   -1.1820 H     177  UNK177      0.0233
    178 H          13.4499   -6.5550   -0.0046 H     178  UNK178      0.0230
    179 H          12.9699   -5.7969   -1.5402 H     179  UNK179      0.0230
    180 H          14.6489   -6.3388   -1.2961 H     180  UNK180      0.0230
    181 N          14.7810    0.2645   -1.5536 N.3   181  UNL181     -0.2743
    182 C          16.0270    0.9965   -1.7663 C.3   182  UNL182      0.0625
    183 C          16.3600    1.8563   -0.5705 C.3   183  UNL183      0.2182
    184 O          15.6350    1.8965    0.4317 O.3   184  HOH184     -0.2041
    185 C          15.9180    1.8719   -3.0762 C.3   185  UNL185     -0.0270
    186 C          15.7710    1.0414   -4.3758 C.3   186  UNL186     -0.0611
    187 C          17.0900    2.8575   -3.3472 C.3   187  UNL187     -0.0611
    188 H          14.2090    0.3608   -0.6426 H     188  UNK188      0.1253
    189 H          16.8510    0.2682   -1.8810 H     189  UNK189      0.0508
    190 H          15.0010    2.4928   -2.9798 H     190  UNK190      0.0312
    191 H          16.6730    0.4405   -4.5919 H     191  UNK191      0.0233
    192 H          14.9160    0.3451   -4.3243 H     192  UNK192      0.0233
    193 H          15.5870    1.6873   -5.2558 H     193  UNK193      0.0233
    194 H          18.0630    2.3379   -3.4421 H     194  UNK194      0.0233
    195 H          16.9390    3.4414   -4.2762 H     195  UNK195      0.0233
    196 H          17.2000    3.6131   -2.5477 H     196  UNK196      0.0233
    197 N          16.2591    1.4844    0.5294 N.3   197  UNL197     -0.2746
    198 C          17.2061    1.6301    1.6339 C.3   198  UNL198      0.0602
    199 C          18.1761    0.4721    1.5925 C.3   199  UNL199      0.2179
    200 O          19.3611    0.6957    1.7767 O.3   200  HOH200     -0.2042
    201 C          16.5011    1.6763    3.0165 C.3   201  UNL201     -0.0332
    202 C          15.6141    2.9454    3.1603 C.3   202  UNL202     -0.0504
    203 C          14.7491    2.9032    4.4485 C.3   203  UNL203     -0.0418
    204 C          13.7881    4.1192    4.5275 C.3   204  UNL204     -0.0196
    205 N          12.9251    4.0578    5.7297 N.3   205  UNL205     -0.3784
    206 H          17.7651    2.5733    1.5028 H     206  UNK206      0.0506
    207 H          15.3021    1.2761    0.7317 H     207  UNK207      0.1253
    208 H          17.2601    1.6829    3.8175 H     208  UNK208      0.0282
    209 H          15.8901    0.7680    3.1353 H     209  UNK209      0.0282
    210 H          14.9421    3.0361    2.2918 H     210  UNK210      0.0266
    211 H          16.2541    3.8451    3.1773 H     211  UNK211      0.0266
    212 H          15.4081    2.8938    5.3324 H     212  UNK212      0.0277
    213 H          14.1471    1.9807    4.4567 H     213  UNK213      0.0277
    214 H          13.1521    4.1313    3.6277 H     214  UNK214      0.0409
    215 H          14.3771    5.0533    4.5367 H     215  UNK215      0.0409
    216 H          12.3231    3.1635    5.7468 H     216  UNK216      0.1004
    217 H          12.2401    4.8946    5.7616 H     217  UNK217      0.1004
    218 H          13.5081    4.0890    6.6364 H     218  UNK218      0.1004
    219 N          17.7372   -0.7783    1.3704 N.3   219  UNL219     -0.2746
    220 C          18.6842   -1.8914    1.3227 C.3   220  UNL220      0.0602
    221 C          19.6542   -1.6502    0.1894 C.3   221  UNL221      0.2179
    222 O          20.8392   -1.8702    0.3777 O.3   222  HOH222     -0.2042
    223 C          17.9792   -3.2611    1.1289 C.3   223  UNL223     -0.0332
    224 C          17.0922   -3.6223    2.3540 C.3   224  UNL224     -0.0504
    225 C          16.2272   -4.8838    2.0895 C.3   225  UNL225     -0.0418
    226 C          15.2662   -5.1721    3.2735 C.3   226  UNL226     -0.0196
    227 N          14.4032   -6.3455    3.0049 N.3   227  UNL227     -0.3784
    228 H          19.2432   -1.9255    2.2744 H     228  UNK228      0.0506
    229 H          16.7802   -0.9415    1.1303 H     229  UNK229      0.1253
    230 H          18.7382   -4.0512    0.9968 H     230  UNK230      0.0282
    231 H          17.3682   -3.2209    0.2138 H     231  UNK231      0.0282
    232 H          16.4202   -2.7826    2.5937 H     232  UNK232      0.0266
    233 H          17.7322   -3.7948    3.2372 H     233  UNK233      0.0266
    234 H          16.8862   -5.7527    1.9273 H     234  UNK234      0.0277
    235 H          15.6252   -4.7322    1.1795 H     235  UNK235      0.0277
    236 H          14.6302   -4.2880    3.4411 H     236  UNK236      0.0409
    237 H          15.8552   -5.3428    4.1919 H     237  UNK237      0.0409
    238 H          13.8012   -6.2076    2.1212 H     238  UNK238      0.1004
    239 H          13.7182   -6.5218    3.8236 H     239  UNK239      0.1004
    240 H          14.9862   -7.2439    2.8788 H     240  UNK240      0.1004
    241 N          19.2153   -1.2150   -1.0038 N.3   241  UNL241     -0.2746
    242 C          20.1623   -0.9754   -2.0918 C.3   242  UNL242      0.0602
    243 C          21.1323    0.0991   -1.6580 C.3   243  UNL243      0.2179
    244 O          22.3173   -0.0483   -1.9074 O.3   244  HOH244     -0.2042
    245 C          19.4573   -0.5475   -3.4073 C.3   245  UNL245     -0.0332
    246 C          18.5703   -1.6915   -3.9751 C.3   246  UNL246     -0.0504
    247 C          17.7053   -1.2127   -5.1717 C.3   247  UNL247     -0.0418
    248 C          16.7443   -2.3290   -5.6606 C.3   248  UNL248     -0.0196
    249 N          15.8813   -1.8614   -6.7698 N.3   249  UNL249     -0.3784
    250 H          20.7213   -1.9068   -2.2901 H     250  UNK250      0.0506
    251 H          18.2583   -0.9503   -1.1229 H     251  UNK251      0.1253
    252 H          20.2163   -0.2807   -4.1625 H     252  UNK252      0.0282
    253 H          18.8463    0.3469   -3.2093 H     253  UNK253      0.0282
    254 H          17.8983   -2.0730   -3.1895 H     254  UNK254      0.0266
    255 H          19.2103   -2.5316   -4.2978 H     255  UNK255      0.0266
    256 H          18.3643   -0.9026   -5.9995 H     256  UNK256      0.0277
    257 H          17.1033   -0.3427   -4.8649 H     257  UNK257      0.0277
    258 H          16.1083   -2.6471   -4.8188 H     258  UNK258      0.0409
    259 H          17.3333   -3.2040   -5.9877 H     259  UNK259      0.0409
    260 H          15.2793   -1.0148   -6.4810 H     260  UNK260      0.1004
    261 H          15.1963   -2.6372   -7.0851 H     261  UNK261      0.1004
    262 H          16.4643   -1.5817   -7.6328 H     262  UNK262      0.1004
    263 N          20.6934    1.1989   -1.0230 N.3   263  UNL263     -0.2746
    264 C          21.6254    2.2233   -0.5568 C.3   264  UNL264      0.0604
    265 C          22.6384    1.5867    0.3642 C.3   265  UNL265      0.2179
    266 O          23.8274    1.7777    0.1615 O.3   266  HOH266     -0.2042
    267 C          20.9274    3.3826    0.2087 C.3   267  UNL267     -0.0291
    268 C          20.1004    4.3150   -0.7158 C.3   268  UNL268     -0.0015
    269 C          19.1594    5.2620    0.0033 C.3   269  UNL269      0.1981
    270 O          18.1854    5.6580   -0.6214 O.3   270  HOH270     -0.2062
    271 N          19.3874    5.6630    1.2760 N.3   271  UNL271     -0.2972
    272 H          22.1524    2.6296   -1.4378 H     272  UNK272      0.0506
    273 H          19.7134    1.3449   -0.9013 H     273  UNK273      0.1253
    274 H          21.7054    3.9862    0.6991 H     274  UNK274      0.0283
    275 H          20.2754    2.9647    0.9911 H     275  UNK275      0.0283
    276 H          19.4954    3.6902   -1.3864 H     276  UNK276      0.0309
    277 H          20.7834    4.9072   -1.3443 H     277  UNK277      0.0309
    278 H          20.1814    5.3615    1.8043 H     278  UNK278      0.1211
    279 H          18.7384    6.2894    1.7110 H     279  UNK279      0.1211
    280 N          22.1715    0.8000    1.3578 N.3   280  UNL280     -0.2745
    281 C          23.1195    0.1939    2.3179 C.3   281  UNL281      0.0643
    282 C          24.1135   -0.6527    1.5632 C.3   282  UNL282      0.2179
    283 O          25.3195   -0.5466    1.7150 O.3   283  HOH283     -0.2042
    284 H          21.6945    0.0439    0.7507 H     284  UNK284      0.1253
    285 H          23.6655    1.0188    2.8047 H     285  UNK285      0.0507
    286 C          22.4145   -0.6483    3.4160 C.3   286  UNL286      0.0167
    287 H          21.7375   -0.0062    3.9980 H     287  UNK287      0.0325
    288 H          23.1775   -1.0390    4.1107 H     288  UNK288      0.0325
    289 C          21.6365   -1.8111    2.8408 C.3   289  UNL289      0.1997
    290 O          22.1665   -2.9082    2.7710 O.3   290  HOH290     -0.2061
    291 N          20.3725   -1.6206    2.4122 N.3   291  UNL291     -0.2972
    292 H          19.9195   -0.7281    2.4710 H     292  UNK292      0.1211
    293 H          19.8775   -2.4001    2.0308 H     293  UNK293      0.1211
    294 N          23.6496   -1.4758    0.5530 N.3   294  UNL294     -0.2763
    295 C          24.8976   -2.0208    0.0273 C.3   295  UNL295      0.0609
    296 C          25.2186   -1.4301   -1.3256 C.3   296  UNL296      0.2712
    297 O          24.4886   -0.6037   -1.8636 O.3   297  HOH297     -0.1894
    298 H          23.0686   -0.7470    0.0071 H     298  UNK298      0.1250
    299 H          25.7306   -1.8103    0.7220 H     299  UNK299      0.0480
    300 H          24.8266   -3.1203   -0.0640 H     300  UNK300      0.0480
    301 O          25.1666   -0.4312   -1.5564 O.3   301  HOH301     -0.3576
    302 H          25.8576    0.1040   -1.9342 H     302  UNK302      0.2130
@<TRIPOS>BOND
     1     1     2    1
     2    25    15    1
     3    23    13    1
     4    15    13    1
     5    15    14    2
     6    13    11    2
     7    21    10    1
     8    24    14    1
     9    14    12    1
    10    11    10    1
    11    11     9    1
    12    10     8    1
    13    12     9    2
    14    12    22    1
    15     9     7    1
    16    17     3    1
    17     2    16    1
    18     2     3    1
    19     8    20    1
    20     8     7    2
    21     7     6    1
    22     3     6    1
    23     3     4    1
    24     6    19    1
    25     6    18    1
    26     4     5    2
    27     4    26    1
    28    49    39    1
    29    47    37    1
    30    39    37    1
    31    39    38    2
    32    37    35    2
    33    45    34    1
    34    48    38    1
    35    38    36    1
    36    35    34    1
    37    35    33    1
    38    34    32    1
    39    36    33    2
    40    36    46    1
    41    33    31    1
    42    41    27    1
    43    26    40    1
    44    26    27    1
    45    32    44    1
    46    32    31    2
    47    31    30    1
    48    27    30    1
    49    27    28    1
    50    30    43    1
    51    30    42    1
    52    28    29    2
    53    28    50    1
    54    57    51    1
    55    50    56    1
    56    50    51    1
    57    58    54    1
    58    51    54    1
    59    51    52    1
    60    54    55    1
    61    54    59    1
    62    52    53    2
    63    55    60    1
    64    52    61    1
    65    61    70    1
    66    61    62    1
    67    79    68    1
    68    69    62    1
    69    62    63    1
    70    62    65    1
    71    63    64    2
    72    78    68    1
    73    73    66    1
    74    68    77    1
    75    68    66    1
    76    66    65    1
    77    66    67    1
    78    65    72    1
    79    65    71    1
    80    75    67    1
    81    67    74    1
    82    67    76    1
    83    63    80    1
    84    80    90    1
    85    80    81    1
    86    89    81    1
    87    81    82    1
    88    81    84    1
    89    93    85    1
    90    82    83    2
    91    94    85    1
    92    85    84    1
    93    85    86    1
    94    84    92    1
    95    84    91    1
    96    88    86    2
    97    86    87    1
    98    82    95    1
    99   102    96    1
   100    95   101    1
   101    95    96    1
   102   103    99    1
   103    96    99    1
   104    96    97    1
   105    99   100    1
   106    99   104    1
   107    97    98    2
   108   100   105    1
   109    97   106    1
   110   129   119    1
   111   127   117    1
   112   119   117    1
   113   119   118    2
   114   117   115    2
   115   125   114    1
   116   128   118    1
   117   118   116    1
   118   115   114    1
   119   115   113    1
   120   114   112    1
   121   116   113    2
   122   116   126    1
   123   113   111    1
   124   121   107    1
   125   106   120    1
   126   106   107    1
   127   112   124    1
   128   112   111    2
   129   111   110    1
   130   107   110    1
   131   107   108    1
   132   110   123    1
   133   110   122    1
   134   108   109    2
   135   108   130    1
   136   137   131    1
   137   130   136    1
   138   130   131    1
   139   138   134    1
   140   131   134    1
   141   131   132    1
   142   134   135    1
   143   134   139    1
   144   132   133    2
   145   135   140    1
   146   132   141    1
   147   152   161    1
   148   152   151    1
   149   159   149    1
   150   151   149    2
   151   151   150    1
   152   149   147    1
   153   160   150    1
   154   150   148    2
   155   147   157    1
   156   147   146    2
   157   154   142    1
   158   141   153    1
   159   141   142    1
   160   148   146    1
   161   148   158    1
   162   146   145    1
   163   142   145    1
   164   142   143    1
   165   145   156    1
   166   145   155    1
   167   143   144    2
   168   143   162    1
   169   173   167    1
   170   174   167    1
   171   171   163    1
   172   162   170    1
   173   162   163    1
   174   178   169    1
   175   167   169    1
   176   167   166    1
   177   163   166    1
   178   163   164    1
   179   169   180    1
   180   169   179    1
   181   177   168    1
   182   166   168    1
   183   166   172    1
   184   164   165    2
   185   168   175    1
   186   168   176    1
   187   164   181    1
   188   192   186    1
   189   191   186    1
   190   189   182    1
   191   181   188    1
   192   181   182    1
   193   186   193    1
   194   186   185    1
   195   182   185    1
   196   182   183    1
   197   185   190    1
   198   185   187    1
   199   194   187    1
   200   183   184    2
   201   187   195    1
   202   187   196    1
   203   183   197    1
   204   197   207    1
   205   197   198    1
   206   206   198    1
   207   198   199    1
   208   198   201    1
   209   210   202    1
   210   199   200    2
   211   211   202    1
   212   202   201    1
   213   202   203    1
   214   214   204    1
   215   201   209    1
   216   201   208    1
   217   215   204    1
   218   204   203    1
   219   204   205    1
   220   203   213    1
   221   203   212    1
   222   217   205    1
   223   205   216    1
   224   205   218    1
   225   199   219    1
   226   219   229    1
   227   219   220    1
   228   228   220    1
   229   220   221    1
   230   220   223    1
   231   232   224    1
   232   221   222    2
   233   233   224    1
   234   224   223    1
   235   224   225    1
   236   236   226    1
   237   223   231    1
   238   223   230    1
   239   237   226    1
   240   226   225    1
   241   226   227    1
   242   225   235    1
   243   225   234    1
   244   239   227    1
   245   227   238    1
   246   227   240    1
   247   221   241    1
   248   241   251    1
   249   241   242    1
   250   250   242    1
   251   242   243    1
   252   242   245    1
   253   254   246    1
   254   243   244    2
   255   255   246    1
   256   246   245    1
   257   246   247    1
   258   258   248    1
   259   245   253    1
   260   245   252    1
   261   259   248    1
   262   248   247    1
   263   248   249    1
   264   247   257    1
   265   247   256    1
   266   261   249    1
   267   249   260    1
   268   249   262    1
   269   243   263    1
   270   263   273    1
   271   263   264    1
   272   272   264    1
   273   264   265    1
   274   264   267    1
   275   266   265    2
   276   276   268    1
   277   277   268    1
   278   268   267    1
   279   268   269    1
   280   267   275    1
   281   267   274    1
   282   270   269    2
   283   269   271    1
   284   271   278    1
   285   271   279    1
   286   265   280    1
   287   280   284    1
   288   280   281    1
   289   285   281    1
   290   281   282    1
   291   281   286    1
   292   283   282    2
   293   292   291    1
   294   287   286    1
   295   286   288    1
   296   286   289    1
   297   291   289    1
   298   291   293    1
   299   289   290    2
   300   282   294    1
   301   299   295    1
   302   294   298    1
   303   294   295    1
   304   295   300    1
   305   295   296    1
   306   296   297    2
   307   296   301    1
   308   301   302    1
