ligand_6
     RDKit          2D

278284  0  0  0  0  0  0  0  0999 V2000
   19.5688   16.6261    0.0000 H   0  0  0  0  0  0  0  0  0  0  0  0
   20.3188   15.3271    0.0000 N   0  0  0  0  0  0  0  0  0  0  0  0
   19.5688   14.0281    0.0000 C   0  0  0  0  0  0  0  0  0  0  0  0
   18.8188   12.7290    0.0000 C   0  0  0  0  0  0  0  0  0  0  0  0
   19.4769   11.8557    0.0000 O   0  0  0  0  0  0  0  0  0  0  0  0
   21.8188   15.3271    0.0000 H   0  0  0  0  0  0  0  0  0  0  0  0
   20.8679   13.2781    0.0000 H   0  0  0  0  0  0  0  0  0  0  0  0
   18.2698   14.7781    0.0000 H   0  0  0  0  0  0  0  0  0  0  0  0
   17.3188   12.7290    0.0000 N   0  0  0  0  0  0  0  0  0  0  0  0
   16.5688   11.4300    0.0000 C   0  0  0  0  0  0  0  0  0  0  0  0
   17.8679   10.6800    0.0000 C   0  0  0  0  0  0  0  0  0  0  0  0
   18.6017   10.9914    0.0000 O   0  0  0  0  0  0  0  0  0  0  0  0
   15.2698   12.1800    0.0000 C   0  0  0  0  0  0  0  0  0  0  0  0
   13.9707   12.9300    0.0000 C   0  0  0  0  0  0  0  0  0  0  0  0
   13.8140   14.4218    0.0000 N   0  0  0  0  0  0  0  0  0  0  0  0
   12.6004   12.3199    0.0000 C   0  0  0  0  0  0  0  0  0  0  0  0
   12.3467   14.7336    0.0000 C   0  0  0  0  0  0  0  0  0  0  0  0
   11.5967   13.4346    0.0000 N   0  0  0  0  0  0  0  0  0  0  0  0
   15.8188   10.1309    0.0000 H   0  0  0  0  0  0  0  0  0  0  0  0
   16.9054   14.1709    0.0000 H   0  0  0  0  0  0  0  0  0  0  0  0
   14.5198   10.8809    0.0000 H   0  0  0  0  0  0  0  0  0  0  0  0
   15.8558   13.5608    0.0000 H   0  0  0  0  0  0  0  0  0  0  0  0
   15.1384   15.1259    0.0000 H   0  0  0  0  0  0  0  0  0  0  0  0
   12.8352   10.8384    0.0000 H   0  0  0  0  0  0  0  0  0  0  0  0
   11.5741   16.0194    0.0000 H   0  0  0  0  0  0  0  0  0  0  0  0
   17.8679    9.1800    0.0000 N   0  0  0  0  0  0  0  0  0  0  0  0
   19.1669    8.4300    0.0000 C   0  0  0  0  0  0  0  0  0  0  0  0
   18.4169    7.1309    0.0000 C   0  0  0  0  0  0  0  0  0  0  0  0
   16.9615    7.4939    0.0000 O   0  0  0  0  0  0  0  0  0  0  0  0
   16.4259    8.7666    0.0000 H   0  0  0  0  0  0  0  0  0  0  0  0
   20.6088    8.0166    0.0000 H   0  0  0  0  0  0  0  0  0  0  0  0
   19.9169    9.7290    0.0000 C   0  0  0  0  0  0  0  0  0  0  0  0
   19.2288   10.5789    0.0000 H   0  0  0  0  0  0  0  0  0  0  0  0
   21.2159    8.9790    0.0000 H   0  0  0  0  0  0  0  0  0  0  0  0
   20.6669   11.0281    0.0000 C   0  0  0  0  0  0  0  0  0  0  0  0
   19.9169   12.3271    0.0000 O   0  0  0  0  0  0  0  0  0  0  0  0
   22.1669   11.0281    0.0000 N   0  0  0  0  0  0  0  0  0  0  0  0
   22.9169   12.3271    0.0000 H   0  0  0  0  0  0  0  0  0  0  0  0
   22.9169    9.7290    0.0000 H   0  0  0  0  0  0  0  0  0  0  0  0
   19.1669    5.8319    0.0000 N   0  0  0  0  0  0  0  0  0  0  0  0
   18.5568    4.4616    0.0000 C   0  0  0  0  0  0  0  0  0  0  0  0
   17.2578    5.2116    0.0000 C   0  0  0  0  0  0  0  0  0  0  0  0
   15.9587    4.4616    0.0000 O   0  0  0  0  0  0  0  0  0  0  0  0
   19.6715    3.4579    0.0000 C   0  0  0  0  0  0  0  0  0  0  0  0
   20.9705    4.2079    0.0000 C   0  0  0  0  0  0  0  0  0  0  0  0
   20.6587    5.6751    0.0000 C   0  0  0  0  0  0  0  0  0  0  0  0
   17.8296    3.1496    0.0000 H   0  0  0  0  0  0  0  0  0  0  0  0
   18.5568    2.4542    0.0000 H   0  0  0  0  0  0  0  0  0  0  0  0
   20.5532    2.2444    0.0000 H   0  0  0  0  0  0  0  0  0  0  0  0
   21.5807    2.8376    0.0000 H   0  0  0  0  0  0  0  0  0  0  0  0
   22.3971    4.6714    0.0000 H   0  0  0  0  0  0  0  0  0  0  0  0
   22.1505    5.8319    0.0000 H   0  0  0  0  0  0  0  0  0  0  0  0
   20.8415    7.1639    0.0000 H   0  0  0  0  0  0  0  0  0  0  0  0
   17.2578    6.7116    0.0000 N   0  0  0  0  0  0  0  0  0  0  0  0
   16.0442    7.5933    0.0000 C   0  0  0  0  0  0  0  0  0  0  0  0
   15.2942    6.2942    0.0000 C   0  0  0  0  0  0  0  0  0  0  0  0
   16.0442    4.9952    0.0000 O   0  0  0  0  0  0  0  0  0  0  0  0
   16.5078    9.0199    0.0000 C   0  0  0  0  0  0  0  0  0  0  0  0
   18.0078    9.0199    0.0000 C   0  0  0  0  0  0  0  0  0  0  0  0
   18.4713    7.5933    0.0000 C   0  0  0  0  0  0  0  0  0  0  0  0
   14.6739    8.2034    0.0000 H   0  0  0  0  0  0  0  0  0  0  0  0
   15.0405    9.3317    0.0000 H   0  0  0  0  0  0  0  0  0  0  0  0
   16.6645   10.5116    0.0000 H   0  0  0  0  0  0  0  0  0  0  0  0
   18.0340   10.5196    0.0000 H   0  0  0  0  0  0  0  0  0  0  0  0
   19.3559    9.6775    0.0000 H   0  0  0  0  0  0  0  0  0  0  0  0
   19.7570    8.3659    0.0000 H   0  0  0  0  0  0  0  0  0  0  0  0
   19.5133    6.5143    0.0000 H   0  0  0  0  0  0  0  0  0  0  0  0
   13.7942    6.2942    0.0000 N   0  0  0  0  0  0  0  0  0  0  0  0
   13.0442    4.9952    0.0000 C   0  0  0  0  0  0  0  0  0  0  0  0
   11.7452    5.7452    0.0000 C   0  0  0  0  0  0  0  0  0  0  0  0
   12.1082    7.2006    0.0000 O   0  0  0  0  0  0  0  0  0  0  0  0
   14.3433    4.2452    0.0000 C   0  0  0  0  0  0  0  0  0  0  0  0
   15.6423    3.4952    0.0000 C   0  0  0  0  0  0  0  0  0  0  0  0
   16.9413    2.7452    0.0000 C   0  0  0  0  0  0  0  0  0  0  0  0
   18.3221    3.3313    0.0000 O   0  0  0  0  0  0  0  0  0  0  0  0
   16.9413    1.2452    0.0000 N   0  0  0  0  0  0  0  0  0  0  0  0
   12.2942    3.6962    0.0000 H   0  0  0  0  0  0  0  0  0  0  0  0
   13.0442    7.5933    0.0000 H   0  0  0  0  0  0  0  0  0  0  0  0
   15.3853    5.3241    0.0000 H   0  0  0  0  0  0  0  0  0  0  0  0
   13.5933    2.9462    0.0000 H   0  0  0  0  0  0  0  0  0  0  0  0
   16.3923    4.7942    0.0000 H   0  0  0  0  0  0  0  0  0  0  0  0
   14.8923    2.1962    0.0000 H   0  0  0  0  0  0  0  0  0  0  0  0
   18.2404    0.4952    0.0000 H   0  0  0  0  0  0  0  0  0  0  0  0
   15.6423    0.4952    0.0000 H   0  0  0  0  0  0  0  0  0  0  0  0
   10.4462    4.9952    0.0000 N   0  0  0  0  0  0  0  0  0  0  0  0
    9.1471    5.7452    0.0000 C   0  0  0  0  0  0  0  0  0  0  0  0
    8.3971    4.4462    0.0000 C   0  0  0  0  0  0  0  0  0  0  0  0
    9.1471    3.1471    0.0000 O   0  0  0  0  0  0  0  0  0  0  0  0
    9.8971    7.0442    0.0000 C   0  0  0  0  0  0  0  0  0  0  0  0
   10.6471    8.3433    0.0000 C   0  0  0  0  0  0  0  0  0  0  0  0
   11.1962    6.2942    0.0000 C   0  0  0  0  0  0  0  0  0  0  0  0
   11.3971    9.6423    0.0000 C   0  0  0  0  0  0  0  0  0  0  0  0
   10.6290    3.5064    0.0000 H   0  0  0  0  0  0  0  0  0  0  0  0
    8.2032    6.9110    0.0000 H   0  0  0  0  0  0  0  0  0  0  0  0
    8.9532    8.2100    0.0000 H   0  0  0  0  0  0  0  0  0  0  0  0
    9.4492    9.2460    0.0000 H   0  0  0  0  0  0  0  0  0  0  0  0
    9.2663    8.9293    0.0000 H   0  0  0  0  0  0  0  0  0  0  0  0
   12.6952    6.2420    0.0000 H   0  0  0  0  0  0  0  0  0  0  0  0
   11.9462    7.5933    0.0000 H   0  0  0  0  0  0  0  0  0  0  0  0
   11.1440    4.7951    0.0000 H   0  0  0  0  0  0  0  0  0  0  0  0
   12.5629   10.5862    0.0000 H   0  0  0  0  0  0  0  0  0  0  0  0
   10.6024   10.9145    0.0000 H   0  0  0  0  0  0  0  0  0  0  0  0
   12.5950    8.7396    0.0000 H   0  0  0  0  0  0  0  0  0  0  0  0
    6.8971    4.4462    0.0000 N   0  0  0  0  0  0  0  0  0  0  0  0
    6.1471    3.1471    0.0000 C   0  0  0  0  0  0  0  0  0  0  0  0
    4.8481    3.8971    0.0000 C   0  0  0  0  0  0  0  0  0  0  0  0
    5.2110    5.3525    0.0000 O   0  0  0  0  0  0  0  0  0  0  0  0
    7.4462    2.3971    0.0000 C   0  0  0  0  0  0  0  0  0  0  0  0
    8.7452    1.6471    0.0000 C   0  0  0  0  0  0  0  0  0  0  0  0
   10.0442    0.8971    0.0000 C   0  0  0  0  0  0  0  0  0  0  0  0
   11.3433    0.1471    0.0000 C   0  0  0  0  0  0  0  0  0  0  0  0
   12.6423   -0.6029    0.0000 N   0  0  0  0  0  0  0  0  0  0  0  0
    5.3971    1.8481    0.0000 H   0  0  0  0  0  0  0  0  0  0  0  0
    6.4837    5.8881    0.0000 H   0  0  0  0  0  0  0  0  0  0  0  0
    6.6962    1.0981    0.0000 H   0  0  0  0  0  0  0  0  0  0  0  0
    8.6119    3.3410    0.0000 H   0  0  0  0  0  0  0  0  0  0  0  0
    7.9952    0.3481    0.0000 H   0  0  0  0  0  0  0  0  0  0  0  0
    9.6479    2.8450    0.0000 H   0  0  0  0  0  0  0  0  0  0  0  0
    9.2942   -0.4019    0.0000 H   0  0  0  0  0  0  0  0  0  0  0  0
   10.7942    2.1962    0.0000 H   0  0  0  0  0  0  0  0  0  0  0  0
   12.0933    1.4462    0.0000 H   0  0  0  0  0  0  0  0  0  0  0  0
   10.5933   -1.1519    0.0000 H   0  0  0  0  0  0  0  0  0  0  0  0
   13.9413   -1.3529    0.0000 H   0  0  0  0  0  0  0  0  0  0  0  0
   11.8923   -1.9019    0.0000 H   0  0  0  0  0  0  0  0  0  0  0  0
   13.3923    0.6962    0.0000 H   0  0  0  0  0  0  0  0  0  0  0  0
    3.5490    3.1471    0.0000 N   0  0  0  0  0  0  0  0  0  0  0  0
    2.2500    3.8971    0.0000 C   0  0  0  0  0  0  0  0  0  0  0  0
    3.0000    5.1962    0.0000 C   0  0  0  0  0  0  0  0  0  0  0  0
    2.0972    6.3941    0.0000 O   0  0  0  0  0  0  0  0  0  0  0  0
    1.5000    2.5981    0.0000 C   0  0  0  0  0  0  0  0  0  0  0  0
    0.7500    1.2990    0.0000 C   0  0  0  0  0  0  0  0  0  0  0  0
    1.5000    0.0000    0.0000 C   0  0  0  0  0  0  0  0  0  0  0  0
   -0.7500    1.2990    0.0000 C   0  0  0  0  0  0  0  0  0  0  0  0
    0.7500   -1.2990    0.0000 C   0  0  0  0  0  0  0  0  0  0  0  0
   -1.5000    0.0000    0.0000 C   0  0  0  0  0  0  0  0  0  0  0  0
   -0.7500   -1.2990    0.0000 C   0  0  0  0  0  0  0  0  0  0  0  0
   -1.5000   -2.5981    0.0000 O   0  0  0  0  0  0  0  0  0  0  0  0
    3.9120    1.6917    0.0000 H   0  0  0  0  0  0  0  0  0  0  0  0
    0.8081    4.3105    0.0000 H   0  0  0  0  0  0  0  0  0  0  0  0
    2.5790    1.5560    0.0000 H   0  0  0  0  0  0  0  0  0  0  0  0
    0.0581    3.0115    0.0000 H   0  0  0  0  0  0  0  0  0  0  0  0
    3.0000    0.0000    0.0000 H   0  0  0  0  0  0  0  0  0  0  0  0
   -1.5000    2.5981    0.0000 H   0  0  0  0  0  0  0  0  0  0  0  0
    1.5000   -2.5981    0.0000 H   0  0  0  0  0  0  0  0  0  0  0  0
   -3.0000    0.0000    0.0000 H   0  0  0  0  0  0  0  0  0  0  0  0
   -3.0000   -2.5981    0.0000 H   0  0  0  0  0  0  0  0  0  0  0  0
    4.5000    5.1962    0.0000 N   0  0  0  0  0  0  0  0  0  0  0  0
    5.2500    6.4952    0.0000 C   0  0  0  0  0  0  0  0  0  0  0  0
    3.9510    7.2452    0.0000 C   0  0  0  0  0  0  0  0  0  0  0  0
    2.4694    7.0107    0.0000 O   0  0  0  0  0  0  0  0  0  0  0  0
    6.5490    5.7452    0.0000 C   0  0  0  0  0  0  0  0  0  0  0  0
    7.8481    4.9952    0.0000 C   0  0  0  0  0  0  0  0  0  0  0  0
    9.1471    4.2452    0.0000 C   0  0  0  0  0  0  0  0  0  0  0  0
    8.5981    6.2942    0.0000 C   0  0  0  0  0  0  0  0  0  0  0  0
    6.2920    7.5741    0.0000 H   0  0  0  0  0  0  0  0  0  0  0  0
    5.4028    3.9982    0.0000 H   0  0  0  0  0  0  0  0  0  0  0  0
    7.2990    7.0442    0.0000 H   0  0  0  0  0  0  0  0  0  0  0  0
    5.9630    4.3644    0.0000 H   0  0  0  0  0  0  0  0  0  0  0  0
    7.4347    3.5533    0.0000 H   0  0  0  0  0  0  0  0  0  0  0  0
   10.3450    3.3424    0.0000 H   0  0  0  0  0  0  0  0  0  0  0  0
   10.5738    4.7085    0.0000 H   0  0  0  0  0  0  0  0  0  0  0  0
    8.7337    2.8033    0.0000 H   0  0  0  0  0  0  0  0  0  0  0  0
    9.1841    7.6750    0.0000 H   0  0  0  0  0  0  0  0  0  0  0  0
   10.0972    6.2420    0.0000 H   0  0  0  0  0  0  0  0  0  0  0  0
    7.2990    7.0442    0.0000 H   0  0  0  0  0  0  0  0  0  0  0  0
    3.9510    8.7452    0.0000 N   0  0  0  0  0  0  0  0  0  0  0  0
    2.6519    9.4952    0.0000 C   0  0  0  0  0  0  0  0  0  0  0  0
    1.9019    8.1962    0.0000 C   0  0  0  0  0  0  0  0  0  0  0  0
    2.4880    6.8154    0.0000 O   0  0  0  0  0  0  0  0  0  0  0  0
    3.4019   10.7942    0.0000 C   0  0  0  0  0  0  0  0  0  0  0  0
    1.3529   10.2452    0.0000 H   0  0  0  0  0  0  0  0  0  0  0  0
    5.1489    9.6479    0.0000 H   0  0  0  0  0  0  0  0  0  0  0  0
    4.1519   12.0933    0.0000 H   0  0  0  0  0  0  0  0  0  0  0  0
    2.2040   11.6970    0.0000 H   0  0  0  0  0  0  0  0  0  0  0  0
    4.7010   10.0442    0.0000 H   0  0  0  0  0  0  0  0  0  0  0  0
    0.4019    8.1962    0.0000 N   0  0  0  0  0  0  0  0  0  0  0  0
   -0.3481    6.8971    0.0000 C   0  0  0  0  0  0  0  0  0  0  0  0
    0.9510    6.1471    0.0000 C   0  0  0  0  0  0  0  0  0  0  0  0
    1.8948    7.3129    0.0000 O   0  0  0  0  0  0  0  0  0  0  0  0
   -1.6471    7.6471    0.0000 C   0  0  0  0  0  0  0  0  0  0  0  0
   -2.9462    8.3971    0.0000 C   0  0  0  0  0  0  0  0  0  0  0  0
   -4.2452    7.6471    0.0000 C   0  0  0  0  0  0  0  0  0  0  0  0
   -2.9462    9.8971    0.0000 C   0  0  0  0  0  0  0  0  0  0  0  0
   -5.5442    8.3971    0.0000 C   0  0  0  0  0  0  0  0  0  0  0  0
   -4.2452   10.6471    0.0000 C   0  0  0  0  0  0  0  0  0  0  0  0
   -5.5442    9.8971    0.0000 C   0  0  0  0  0  0  0  0  0  0  0  0
   -0.5008    9.3941    0.0000 H   0  0  0  0  0  0  0  0  0  0  0  0
   -1.0981    5.5981    0.0000 H   0  0  0  0  0  0  0  0  0  0  0  0
   -1.2337    9.0890    0.0000 H   0  0  0  0  0  0  0  0  0  0  0  0
   -2.3971    6.3481    0.0000 H   0  0  0  0  0  0  0  0  0  0  0  0
   -4.2452    6.1471    0.0000 H   0  0  0  0  0  0  0  0  0  0  0  0
   -1.6471   10.6471    0.0000 H   0  0  0  0  0  0  0  0  0  0  0  0
   -6.8433    7.6471    0.0000 H   0  0  0  0  0  0  0  0  0  0  0  0
   -4.2452   12.1471    0.0000 H   0  0  0  0  0  0  0  0  0  0  0  0
   -6.8433   10.6471    0.0000 H   0  0  0  0  0  0  0  0  0  0  0  0
    0.9510    4.6471    0.0000 N   0  0  0  0  0  0  0  0  0  0  0  0
    2.2500    3.8971    0.0000 C   0  0  0  0  0  0  0  0  0  0  0  0
    3.0000    5.1962    0.0000 C   0  0  0  0  0  0  0  0  0  0  0  0
    4.4554    4.8332    0.0000 O   0  0  0  0  0  0  0  0  0  0  0  0
    1.5000    2.5981    0.0000 C   0  0  0  0  0  0  0  0  0  0  0  0
    3.6919    3.4837    0.0000 H   0  0  0  0  0  0  0  0  0  0  0  0
   -0.4910    4.2337    0.0000 H   0  0  0  0  0  0  0  0  0  0  0  0
    1.0866    1.1562    0.0000 H   0  0  0  0  0  0  0  0  0  0  0  0
    2.7990    1.8481    0.0000 H   0  0  0  0  0  0  0  0  0  0  0  0
    0.2010    3.3481    0.0000 H   0  0  0  0  0  0  0  0  0  0  0  0
    2.2500    6.4952    0.0000 N   0  0  0  0  0  0  0  0  0  0  0  0
    3.0000    7.7942    0.0000 C   0  0  0  0  0  0  0  0  0  0  0  0
    4.2990    7.0442    0.0000 C   0  0  0  0  0  0  0  0  0  0  0  0
    3.9361    5.5888    0.0000 O   0  0  0  0  0  0  0  0  0  0  0  0
    0.7612    6.6780    0.0000 H   0  0  0  0  0  0  0  0  0  0  0  0
    4.0420    8.8732    0.0000 H   0  0  0  0  0  0  0  0  0  0  0  0
    1.7010    8.5442    0.0000 C   0  0  0  0  0  0  0  0  0  0  0  0
    0.7982    7.3463    0.0000 H   0  0  0  0  0  0  0  0  0  0  0  0
    2.1143    9.9861    0.0000 H   0  0  0  0  0  0  0  0  0  0  0  0
    0.4019    9.2942    0.0000 C   0  0  0  0  0  0  0  0  0  0  0  0
   -0.9788    8.7082    0.0000 O   0  0  0  0  0  0  0  0  0  0  0  0
    0.4019   10.7942    0.0000 N   0  0  0  0  0  0  0  0  0  0  0  0
   -0.8971   11.5442    0.0000 H   0  0  0  0  0  0  0  0  0  0  0  0
    1.5999   11.6970    0.0000 H   0  0  0  0  0  0  0  0  0  0  0  0
    5.5981    7.7942    0.0000 N   0  0  0  0  0  0  0  0  0  0  0  0
    6.8971    7.0442    0.0000 C   0  0  0  0  0  0  0  0  0  0  0  0
    7.6471    8.3433    0.0000 C   0  0  0  0  0  0  0  0  0  0  0  0
    8.9715    9.0476    0.0000 O   0  0  0  0  0  0  0  0  0  0  0  0
    7.6471    8.3433    0.0000 C   0  0  0  0  0  0  0  0  0  0  0  0
    8.3971    9.6423    0.0000 C   0  0  0  0  0  0  0  0  0  0  0  0
    9.8889    9.7991    0.0000 N   0  0  0  0  0  0  0  0  0  0  0  0
    7.7870   11.0126    0.0000 C   0  0  0  0  0  0  0  0  0  0  0  0
   10.2008   11.2663    0.0000 C   0  0  0  0  0  0  0  0  0  0  0  0
    8.9017   12.0163    0.0000 N   0  0  0  0  0  0  0  0  0  0  0  0
    8.3787    6.8097    0.0000 H   0  0  0  0  0  0  0  0  0  0  0  0
    5.4152    9.2830    0.0000 H   0  0  0  0  0  0  0  0  0  0  0  0
    6.7032    9.5091    0.0000 H   0  0  0  0  0  0  0  0  0  0  0  0
    9.1287    8.1087    0.0000 H   0  0  0  0  0  0  0  0  0  0  0  0
   10.8926    8.6844    0.0000 H   0  0  0  0  0  0  0  0  0  0  0  0
    6.4389   11.6703    0.0000 H   0  0  0  0  0  0  0  0  0  0  0  0
   11.4865   12.0389    0.0000 H   0  0  0  0  0  0  0  0  0  0  0  0
    6.8971    9.6423    0.0000 N   0  0  0  0  0  0  0  0  0  0  0  0
    7.6471   10.9413    0.0000 C   0  0  0  0  0  0  0  0  0  0  0  0
    8.9462   10.1913    0.0000 C   0  0  0  0  0  0  0  0  0  0  0  0
    8.4085    8.7910    0.0000 O   0  0  0  0  0  0  0  0  0  0  0  0
    6.3481   11.6913    0.0000 C   0  0  0  0  0  0  0  0  0  0  0  0
    5.0490   12.4413    0.0000 C   0  0  0  0  0  0  0  0  0  0  0  0
    3.7500   13.1913    0.0000 C   0  0  0  0  0  0  0  0  0  0  0  0
    5.7990   13.7404    0.0000 C   0  0  0  0  0  0  0  0  0  0  0  0
    8.0605   12.3833    0.0000 H   0  0  0  0  0  0  0  0  0  0  0  0
    5.3971    9.6423    0.0000 H   0  0  0  0  0  0  0  0  0  0  0  0
    7.2508   12.8893    0.0000 H   0  0  0  0  0  0  0  0  0  0  0  0
    5.4453   10.4934    0.0000 H   0  0  0  0  0  0  0  0  0  0  0  0
    4.2990   11.1423    0.0000 H   0  0  0  0  0  0  0  0  0  0  0  0
    2.4510   13.9413    0.0000 H   0  0  0  0  0  0  0  0  0  0  0  0
    4.3361   14.5721    0.0000 H   0  0  0  0  0  0  0  0  0  0  0  0
    3.0000   11.8923    0.0000 H   0  0  0  0  0  0  0  0  0  0  0  0
    6.5490   15.0394    0.0000 H   0  0  0  0  0  0  0  0  0  0  0  0
    4.6011   14.6431    0.0000 H   0  0  0  0  0  0  0  0  0  0  0  0
    7.1798   13.1543    0.0000 H   0  0  0  0  0  0  0  0  0  0  0  0
   10.2452   10.9413    0.0000 N   0  0  0  0  0  0  0  0  0  0  0  0
   11.5442   10.1913    0.0000 C   0  0  0  0  0  0  0  0  0  0  0  0
   10.7942    8.8923    0.0000 C   0  0  0  0  0  0  0  0  0  0  0  0
   11.8363    7.8134    0.0000 O   0  0  0  0  0  0  0  0  0  0  0  0
   12.2942   11.4904    0.0000 C   0  0  0  0  0  0  0  0  0  0  0  0
   13.0442   12.7894    0.0000 C   0  0  0  0  0  0  0  0  0  0  0  0
   12.2942   14.0885    0.0000 C   0  0  0  0  0  0  0  0  0  0  0  0
   14.5442   12.7894    0.0000 C   0  0  0  0  0  0  0  0  0  0  0  0
   13.0442   15.3875    0.0000 C   0  0  0  0  0  0  0  0  0  0  0  0
   15.2942   14.0885    0.0000 C   0  0  0  0  0  0  0  0  0  0  0  0
   14.5442   15.3875    0.0000 C   0  0  0  0  0  0  0  0  0  0  0  0
   15.2942   16.6865    0.0000 O   0  0  0  0  0  0  0  0  0  0  0  0
   10.0623   12.4302    0.0000 H   0  0  0  0  0  0  0  0  0  0  0  0
   12.9250    9.6053    0.0000 H   0  0  0  0  0  0  0  0  0  0  0  0
   11.2153   12.5324    0.0000 H   0  0  0  0  0  0  0  0  0  0  0  0
   13.5933   10.7404    0.0000 H   0  0  0  0  0  0  0  0  0  0  0  0
   10.7942   14.0885    0.0000 H   0  0  0  0  0  0  0  0  0  0  0  0
   14.9576   11.3475    0.0000 H   0  0  0  0  0  0  0  0  0  0  0  0
   12.4582   16.7683    0.0000 H   0  0  0  0  0  0  0  0  0  0  0  0
   16.7830   14.2713    0.0000 H   0  0  0  0  0  0  0  0  0  0  0  0
   14.5442   17.9856    0.0000 H   0  0  0  0  0  0  0  0  0  0  0  0
    9.2942    8.8923    0.0000 O   0  0  0  0  0  0  0  0  0  0  0  0
    8.5442   10.1913    0.0000 H   0  0  0  0  0  0  0  0  0  0  0  0
  1  2  1  0
  7  3  1  0
  2  6  1  0
  2  3  1  0
  3  8  1  0
  3  4  1  0
  4  5  2  0
  4  9  1  0
  9 20  1  0
  9 10  1  0
 10 19  1  1
 25 17  1  0
 10 11  1  0
 10 13  1  0
 23 15  1  0
 12 11  2  0
 17 15  1  0
 17 18  2  0
 15 14  1  0
 18 16  1  0
 14 13  1  0
 14 16  2  0
 13 22  1  0
 13 21  1  0
 16 24  1  0
 11 26  1  0
 26 30  1  0
 26 27  1  0
 27 31  1  6
 27 28  1  0
 27 32  1  0
 29 28  2  0
 38 37  1  0
 33 32  1  0
 32 34  1  0
 32 35  1  0
 37 35  1  0
 37 39  1  0
 35 36  2  0
 28 40  1  0
 53 46  1  0
 41 47  1  6
 40 46  1  0
 40 41  1  0
 49 44  1  0
 46 52  1  0
 46 45  1  0
 41 44  1  0
 41 42  1  0
 44 45  1  0
 44 48  1  0
 45 51  1  0
 45 50  1  0
 42 43  2  0
 42 54  1  0
 67 60  1  0
 55 61  1  1
 54 60  1  0
 54 55  1  0
 63 58  1  0
 60 66  1  0
 60 59  1  0
 55 58  1  0
 55 56  1  0
 58 59  1  0
 58 62  1  0
 59 65  1  0
 59 64  1  0
 56 57  2  0
 56 68  1  0
 68 78  1  0
 68 69  1  0
 69 77  1  6
 69 70  1  0
 69 72  1  0
 71 70  2  0
 81 73  1  0
 82 73  1  0
 73 72  1  0
 73 74  1  0
 72 80  1  0
 72 79  1  0
 75 74  2  0
 74 76  1  0
 76 83  1  0
 76 84  1  0
 70 85  1  0
 96 90  1  0
 97 90  1  0
 86 94  1  1
 85 93  1  0
 85 86  1  0
101 92  1  0
 90 92  1  0
 90 89  1  0
 86 89  1  0
 86 87  1  0
 92103  1  0
 92102  1  0
100 91  1  0
 89 91  1  0
 89 95  1  1
 87 88  2  0
 91 98  1  0
 91 99  1  0
 87104  1  0
104114  1  0
104105  1  0
105113  1  6
105106  1  0
105108  1  0
117109  1  0
106107  2  0
118109  1  0
109108  1  0
109110  1  0
121111  1  0
108116  1  0
108115  1  0
122111  1  0
111110  1  0
111112  1  0
110120  1  0
110119  1  0
124112  1  0
112123  1  0
112125  1  0
106126  1  0
137146  1  0
137136  1  0
144134  1  0
136134  1  0
136135  2  0
134132  2  0
145135  1  0
135133  1  0
132142  1  0
132131  1  0
127139  1  6
126138  1  0
126127  1  0
133131  2  0
133143  1  0
131130  1  0
127130  1  0
127128  1  0
130141  1  0
130140  1  0
128129  2  0
128147  1  0
147156  1  0
147148  1  0
165154  1  0
148155  1  1
148149  1  0
148151  1  0
149150  2  0
164154  1  0
159152  1  0
154163  1  0
154152  1  0
152151  1  0
152153  1  0
151158  1  0
151157  1  0
161153  1  0
153160  1  0
153162  1  0
149166  1  0
166172  1  0
166167  1  0
167171  1  1
167168  1  0
167170  1  0
169168  2  0
174170  1  0
170173  1  0
170175  1  0
168176  1  0
195186  1  0
194185  1  0
186185  2  0
186184  1  0
185183  1  0
193184  1  0
184182  2  0
183192  1  0
183181  2  0
177188  1  1
176187  1  0
176177  1  0
182181  1  0
182191  1  0
181180  1  0
177180  1  0
177178  1  0
180190  1  0
180189  1  0
178179  2  0
178196  1  0
196202  1  0
196197  1  0
197201  1  1
197198  1  0
197200  1  0
199198  2  0
204200  1  0
200203  1  0
200205  1  0
198206  1  0
206210  1  0
206207  1  0
207211  1  6
207208  1  0
207212  1  0
209208  2  0
218217  1  0
213212  1  0
212214  1  0
212215  1  0
217215  1  0
217219  1  0
215216  2  0
208220  1  0
220231  1  0
220221  1  0
221230  1  1
236228  1  0
221222  1  0
221224  1  0
234226  1  0
223222  2  0
228226  1  0
228229  2  0
226225  1  0
229227  1  0
225224  1  0
225227  2  0
224233  1  0
224232  1  0
227235  1  0
222237  1  0
237246  1  0
237238  1  0
255244  1  0
238245  1  6
238239  1  0
238241  1  0
239240  2  0
254244  1  0
249242  1  0
244253  1  0
244242  1  0
242241  1  0
242243  1  0
241248  1  0
241247  1  0
251243  1  0
243250  1  0
243252  1  0
239256  1  0
267276  1  0
267266  1  0
274264  1  0
266264  1  0
266265  2  0
264262  2  0
275265  1  0
265263  1  0
262272  1  0
262261  1  0
257269  1  6
256268  1  0
256257  1  0
263261  2  0
263273  1  0
261260  1  0
257260  1  0
257258  1  0
260271  1  0
260270  1  0
258259  2  0
258277  1  0
277278  1  0
M  CHG  1 112   1
M  END
>  <_TriposChargeType>  (1) 
GASTEIGER

$$$$
