ligand_1
     RDKit          2D

250250  0  0  0  0  0  0  0  0999 V2000
   29.4303  -18.2683    0.0000 H   0  0  0  0  0  0  0  0  0  0  0  0
   30.0164  -16.8875    0.0000 N   0  0  0  0  0  0  0  0  0  0  0  0
   29.2664  -15.5885    0.0000 C   0  0  0  0  0  0  0  0  0  0  0  0
   30.5654  -14.8385    0.0000 C   0  0  0  0  0  0  0  0  0  0  0  0
   31.3325  -15.2813    0.0000 O   0  0  0  0  0  0  0  0  0  0  0  0
   27.9673  -16.3385    0.0000 C   0  0  0  0  0  0  0  0  0  0  0  0
   26.6683  -17.0885    0.0000 C   0  0  0  0  0  0  0  0  0  0  0  0
   27.2173  -15.0394    0.0000 C   0  0  0  0  0  0  0  0  0  0  0  0
   31.5164  -16.8875    0.0000 H   0  0  0  0  0  0  0  0  0  0  0  0
   28.9203  -14.7731    0.0000 H   0  0  0  0  0  0  0  0  0  0  0  0
   28.5534  -17.7192    0.0000 H   0  0  0  0  0  0  0  0  0  0  0  0
   25.3692  -17.8385    0.0000 H   0  0  0  0  0  0  0  0  0  0  0  0
   26.1352  -16.3811    0.0000 H   0  0  0  0  0  0  0  0  0  0  0  0
   27.4183  -18.3875    0.0000 H   0  0  0  0  0  0  0  0  0  0  0  0
   26.4673  -13.7404    0.0000 H   0  0  0  0  0  0  0  0  0  0  0  0
   26.4020  -15.3855    0.0000 H   0  0  0  0  0  0  0  0  0  0  0  0
   27.9247  -14.5064    0.0000 H   0  0  0  0  0  0  0  0  0  0  0  0
   30.5654  -13.3385    0.0000 N   0  0  0  0  0  0  0  0  0  0  0  0
   31.8644  -12.5885    0.0000 C   0  0  0  0  0  0  0  0  0  0  0  0
   31.1144  -11.2894    0.0000 C   0  0  0  0  0  0  0  0  0  0  0  0
   29.6144  -11.2894    0.0000 O   0  0  0  0  0  0  0  0  0  0  0  0
   32.6144  -13.8875    0.0000 C   0  0  0  0  0  0  0  0  0  0  0  0
   33.1635  -11.8385    0.0000 H   0  0  0  0  0  0  0  0  0  0  0  0
   29.2664  -12.5885    0.0000 H   0  0  0  0  0  0  0  0  0  0  0  0
   33.3644  -15.1865    0.0000 H   0  0  0  0  0  0  0  0  0  0  0  0
   33.9135  -13.1375    0.0000 H   0  0  0  0  0  0  0  0  0  0  0  0
   31.9773  -14.5028    0.0000 H   0  0  0  0  0  0  0  0  0  0  0  0
   31.8644   -9.9904    0.0000 N   0  0  0  0  0  0  0  0  0  0  0  0
   31.1144   -8.6913    0.0000 C   0  0  0  0  0  0  0  0  0  0  0  0
   30.3644   -7.3923    0.0000 C   0  0  0  0  0  0  0  0  0  0  0  0
   31.2672   -6.1944    0.0000 O   0  0  0  0  0  0  0  0  0  0  0  0
   33.3644   -9.9904    0.0000 H   0  0  0  0  0  0  0  0  0  0  0  0
   32.4135   -7.9413    0.0000 H   0  0  0  0  0  0  0  0  0  0  0  0
   29.8154   -9.4413    0.0000 H   0  0  0  0  0  0  0  0  0  0  0  0
   28.8644   -7.3923    0.0000 N   0  0  0  0  0  0  0  0  0  0  0  0
   28.1144   -6.0933    0.0000 C   0  0  0  0  0  0  0  0  0  0  0  0
   26.8154   -6.8433    0.0000 C   0  0  0  0  0  0  0  0  0  0  0  0
   26.9982   -8.3321    0.0000 O   0  0  0  0  0  0  0  0  0  0  0  0
   29.4135   -5.3433    0.0000 C   0  0  0  0  0  0  0  0  0  0  0  0
   30.7125   -4.5933    0.0000 C   0  0  0  0  0  0  0  0  0  0  0  0
   32.0115   -3.8433    0.0000 C   0  0  0  0  0  0  0  0  0  0  0  0
   33.3106   -3.0933    0.0000 C   0  0  0  0  0  0  0  0  0  0  0  0
   34.6096   -2.3433    0.0000 N   0  0  0  0  0  0  0  0  0  0  0  0
   27.3644   -4.7942    0.0000 H   0  0  0  0  0  0  0  0  0  0  0  0
   28.1144   -8.6913    0.0000 H   0  0  0  0  0  0  0  0  0  0  0  0
   28.6635   -4.0442    0.0000 H   0  0  0  0  0  0  0  0  0  0  0  0
   30.4555   -6.4222    0.0000 H   0  0  0  0  0  0  0  0  0  0  0  0
   31.6153   -5.7912    0.0000 H   0  0  0  0  0  0  0  0  0  0  0  0
   29.9625   -3.2942    0.0000 H   0  0  0  0  0  0  0  0  0  0  0  0
   31.2615   -2.5442    0.0000 H   0  0  0  0  0  0  0  0  0  0  0  0
   32.7615   -5.1423    0.0000 H   0  0  0  0  0  0  0  0  0  0  0  0
   34.0606   -4.3923    0.0000 H   0  0  0  0  0  0  0  0  0  0  0  0
   32.5606   -1.7942    0.0000 H   0  0  0  0  0  0  0  0  0  0  0  0
   35.9087   -1.5933    0.0000 H   0  0  0  0  0  0  0  0  0  0  0  0
   33.8596   -1.0442    0.0000 H   0  0  0  0  0  0  0  0  0  0  0  0
   35.3596   -3.6423    0.0000 H   0  0  0  0  0  0  0  0  0  0  0  0
   25.5164   -6.0933    0.0000 N   0  0  0  0  0  0  0  0  0  0  0  0
   24.2173   -6.8433    0.0000 C   0  0  0  0  0  0  0  0  0  0  0  0
   23.4673   -5.5442    0.0000 C   0  0  0  0  0  0  0  0  0  0  0  0
   24.2173   -4.2452    0.0000 O   0  0  0  0  0  0  0  0  0  0  0  0
   24.9673   -8.1423    0.0000 C   0  0  0  0  0  0  0  0  0  0  0  0
   25.7173   -9.4413    0.0000 C   0  0  0  0  0  0  0  0  0  0  0  0
   23.6683   -8.8923    0.0000 C   0  0  0  0  0  0  0  0  0  0  0  0
   25.5164   -4.5933    0.0000 H   0  0  0  0  0  0  0  0  0  0  0  0
   22.8365   -7.4293    0.0000 H   0  0  0  0  0  0  0  0  0  0  0  0
   26.4092   -7.7289    0.0000 H   0  0  0  0  0  0  0  0  0  0  0  0
   26.4673  -10.7404    0.0000 H   0  0  0  0  0  0  0  0  0  0  0  0
   24.5194  -10.3441    0.0000 H   0  0  0  0  0  0  0  0  0  0  0  0
   27.0981   -8.8553    0.0000 H   0  0  0  0  0  0  0  0  0  0  0  0
   22.3692   -9.6423    0.0000 H   0  0  0  0  0  0  0  0  0  0  0  0
   24.2543  -10.2731    0.0000 H   0  0  0  0  0  0  0  0  0  0  0  0
   22.7655   -7.6944    0.0000 H   0  0  0  0  0  0  0  0  0  0  0  0
   21.9673   -5.5442    0.0000 N   0  0  0  0  0  0  0  0  0  0  0  0
   21.2173   -4.2452    0.0000 C   0  0  0  0  0  0  0  0  0  0  0  0
   19.9183   -4.9952    0.0000 C   0  0  0  0  0  0  0  0  0  0  0  0
   20.1011   -6.4840    0.0000 O   0  0  0  0  0  0  0  0  0  0  0  0
   22.5164   -3.4952    0.0000 C   0  0  0  0  0  0  0  0  0  0  0  0
   20.4673   -2.9462    0.0000 H   0  0  0  0  0  0  0  0  0  0  0  0
   21.2173   -6.8433    0.0000 H   0  0  0  0  0  0  0  0  0  0  0  0
   23.8154   -2.7452    0.0000 H   0  0  0  0  0  0  0  0  0  0  0  0
   23.5584   -4.5741    0.0000 H   0  0  0  0  0  0  0  0  0  0  0  0
   21.7664   -2.1962    0.0000 H   0  0  0  0  0  0  0  0  0  0  0  0
   18.6192   -4.2452    0.0000 N   0  0  0  0  0  0  0  0  0  0  0  0
   17.3202   -4.9952    0.0000 C   0  0  0  0  0  0  0  0  0  0  0  0
   16.5702   -3.6962    0.0000 C   0  0  0  0  0  0  0  0  0  0  0  0
   17.4730   -2.4982    0.0000 O   0  0  0  0  0  0  0  0  0  0  0  0
   18.0702   -6.2942    0.0000 C   0  0  0  0  0  0  0  0  0  0  0  0
   18.8202   -7.5933    0.0000 C   0  0  0  0  0  0  0  0  0  0  0  0
   19.3692   -5.5442    0.0000 C   0  0  0  0  0  0  0  0  0  0  0  0
   19.5702   -8.8923    0.0000 C   0  0  0  0  0  0  0  0  0  0  0  0
   18.6192   -2.7452    0.0000 H   0  0  0  0  0  0  0  0  0  0  0  0
   16.0212   -5.7452    0.0000 H   0  0  0  0  0  0  0  0  0  0  0  0
   16.7712   -7.0442    0.0000 H   0  0  0  0  0  0  0  0  0  0  0  0
   17.4394   -8.1793    0.0000 H   0  0  0  0  0  0  0  0  0  0  0  0
   17.6223   -8.4960    0.0000 H   0  0  0  0  0  0  0  0  0  0  0  0
   20.8683   -5.4920    0.0000 H   0  0  0  0  0  0  0  0  0  0  0  0
   19.9553   -6.9250    0.0000 H   0  0  0  0  0  0  0  0  0  0  0  0
   18.9559   -4.1023    0.0000 H   0  0  0  0  0  0  0  0  0  0  0  0
   20.3202  -10.1913    0.0000 H   0  0  0  0  0  0  0  0  0  0  0  0
   18.2712   -9.6423    0.0000 H   0  0  0  0  0  0  0  0  0  0  0  0
   20.8692   -8.1423    0.0000 H   0  0  0  0  0  0  0  0  0  0  0  0
   15.0702   -3.6962    0.0000 N   0  0  0  0  0  0  0  0  0  0  0  0
   14.3202   -2.3971    0.0000 C   0  0  0  0  0  0  0  0  0  0  0  0
   13.0212   -3.1471    0.0000 C   0  0  0  0  0  0  0  0  0  0  0  0
   13.2040   -4.6359    0.0000 O   0  0  0  0  0  0  0  0  0  0  0  0
   15.6192   -1.6471    0.0000 C   0  0  0  0  0  0  0  0  0  0  0  0
   16.9183   -0.8971    0.0000 C   0  0  0  0  0  0  0  0  0  0  0  0
   18.2173   -0.1471    0.0000 C   0  0  0  0  0  0  0  0  0  0  0  0
   19.5164    0.6029    0.0000 N   0  0  0  0  0  0  0  0  0  0  0  0
   19.5164    2.1029    0.0000 C   0  0  0  0  0  0  0  0  0  0  0  0
   20.8154    2.8529    0.0000 N   0  0  0  0  0  0  0  0  0  0  0  0
   18.2173    2.8529    0.0000 N   0  0  0  0  0  0  0  0  0  0  0  0
   14.3202   -4.9952    0.0000 H   0  0  0  0  0  0  0  0  0  0  0  0
   13.5702   -1.0981    0.0000 H   0  0  0  0  0  0  0  0  0  0  0  0
   16.6613   -2.7261    0.0000 H   0  0  0  0  0  0  0  0  0  0  0  0
   14.8692   -0.3481    0.0000 H   0  0  0  0  0  0  0  0  0  0  0  0
   16.1683    0.4019    0.0000 H   0  0  0  0  0  0  0  0  0  0  0  0
   17.8210   -2.0950    0.0000 H   0  0  0  0  0  0  0  0  0  0  0  0
   18.9673   -1.4462    0.0000 H   0  0  0  0  0  0  0  0  0  0  0  0
   17.4673    1.1519    0.0000 H   0  0  0  0  0  0  0  0  0  0  0  0
   20.8154   -0.1471    0.0000 H   0  0  0  0  0  0  0  0  0  0  0  0
   20.8154    4.3529    0.0000 H   0  0  0  0  0  0  0  0  0  0  0  0
   22.1144    2.1029    0.0000 H   0  0  0  0  0  0  0  0  0  0  0  0
   18.2173    4.3529    0.0000 H   0  0  0  0  0  0  0  0  0  0  0  0
   16.9183    2.1029    0.0000 H   0  0  0  0  0  0  0  0  0  0  0  0
   11.7221   -2.3971    0.0000 N   0  0  0  0  0  0  0  0  0  0  0  0
   10.4231   -3.1471    0.0000 C   0  0  0  0  0  0  0  0  0  0  0  0
    9.6731   -1.8481    0.0000 C   0  0  0  0  0  0  0  0  0  0  0  0
   10.0865   -0.4062    0.0000 O   0  0  0  0  0  0  0  0  0  0  0  0
   11.1731   -4.4462    0.0000 C   0  0  0  0  0  0  0  0  0  0  0  0
   11.9231   -5.7452    0.0000 C   0  0  0  0  0  0  0  0  0  0  0  0
   12.6731   -7.0442    0.0000 C   0  0  0  0  0  0  0  0  0  0  0  0
   13.4231   -8.3433    0.0000 C   0  0  0  0  0  0  0  0  0  0  0  0
   14.1731   -9.6423    0.0000 N   0  0  0  0  0  0  0  0  0  0  0  0
    9.6283   -4.4193    0.0000 H   0  0  0  0  0  0  0  0  0  0  0  0
   11.7221   -0.8971    0.0000 H   0  0  0  0  0  0  0  0  0  0  0  0
   12.6150   -4.0328    0.0000 H   0  0  0  0  0  0  0  0  0  0  0  0
   10.2292   -5.6119    0.0000 H   0  0  0  0  0  0  0  0  0  0  0  0
   10.7252   -6.6479    0.0000 H   0  0  0  0  0  0  0  0  0  0  0  0
   13.3039   -5.1591    0.0000 H   0  0  0  0  0  0  0  0  0  0  0  0
   11.3741   -7.7942    0.0000 H   0  0  0  0  0  0  0  0  0  0  0  0
   13.9721   -6.2942    0.0000 H   0  0  0  0  0  0  0  0  0  0  0  0
   14.7221   -7.5933    0.0000 H   0  0  0  0  0  0  0  0  0  0  0  0
   12.1241   -9.0933    0.0000 H   0  0  0  0  0  0  0  0  0  0  0  0
   14.9231  -10.9413    0.0000 H   0  0  0  0  0  0  0  0  0  0  0  0
   12.8741  -10.3923    0.0000 H   0  0  0  0  0  0  0  0  0  0  0  0
   15.4721   -8.8923    0.0000 H   0  0  0  0  0  0  0  0  0  0  0  0
    8.1731   -1.8481    0.0000 N   0  0  0  0  0  0  0  0  0  0  0  0
    7.4231   -0.5490    0.0000 C   0  0  0  0  0  0  0  0  0  0  0  0
    6.1241   -1.2990    0.0000 C   0  0  0  0  0  0  0  0  0  0  0  0
    6.8284   -2.6234    0.0000 O   0  0  0  0  0  0  0  0  0  0  0  0
    8.7221    0.2010    0.0000 C   0  0  0  0  0  0  0  0  0  0  0  0
   10.0212    0.9510    0.0000 C   0  0  0  0  0  0  0  0  0  0  0  0
   11.4631    0.5376    0.0000 O   0  0  0  0  0  0  0  0  0  0  0  0
   10.0212    2.4510    0.0000 O   0  0  0  0  0  0  0  0  0  0  0  0
    8.1209   -3.3472    0.0000 H   0  0  0  0  0  0  0  0  0  0  0  0
    6.6731    0.7500    0.0000 H   0  0  0  0  0  0  0  0  0  0  0  0
    9.7642   -0.8780    0.0000 H   0  0  0  0  0  0  0  0  0  0  0  0
    7.9721    1.5000    0.0000 H   0  0  0  0  0  0  0  0  0  0  0  0
    4.8250   -0.5490    0.0000 N   0  0  0  0  0  0  0  0  0  0  0  0
    3.5260   -1.2990    0.0000 C   0  0  0  0  0  0  0  0  0  0  0  0
    2.7760    0.0000    0.0000 C   0  0  0  0  0  0  0  0  0  0  0  0
    3.5260    1.2990    0.0000 O   0  0  0  0  0  0  0  0  0  0  0  0
    4.2760   -2.5981    0.0000 C   0  0  0  0  0  0  0  0  0  0  0  0
    5.0260   -3.8971    0.0000 C   0  0  0  0  0  0  0  0  0  0  0  0
    5.5750   -1.8481    0.0000 C   0  0  0  0  0  0  0  0  0  0  0  0
    4.8250    0.9510    0.0000 H   0  0  0  0  0  0  0  0  0  0  0  0
    2.3280   -2.2018    0.0000 H   0  0  0  0  0  0  0  0  0  0  0  0
    2.9769   -3.3481    0.0000 H   0  0  0  0  0  0  0  0  0  0  0  0
    5.7760   -5.1962    0.0000 H   0  0  0  0  0  0  0  0  0  0  0  0
    6.5075   -3.6626    0.0000 H   0  0  0  0  0  0  0  0  0  0  0  0
    3.8280   -4.7999    0.0000 H   0  0  0  0  0  0  0  0  0  0  0  0
    7.0169   -1.4347    0.0000 H   0  0  0  0  0  0  0  0  0  0  0  0
    6.1611   -3.2288    0.0000 H   0  0  0  0  0  0  0  0  0  0  0  0
    5.1616   -0.4062    0.0000 H   0  0  0  0  0  0  0  0  0  0  0  0
    1.2760    0.0000    0.0000 N   0  0  0  0  0  0  0  0  0  0  0  0
    0.3943   -1.2135    0.0000 C   0  0  0  0  0  0  0  0  0  0  0  0
    1.6933   -1.9635    0.0000 C   0  0  0  0  0  0  0  0  0  0  0  0
    3.0741   -1.3775    0.0000 O   0  0  0  0  0  0  0  0  0  0  0  0
   -1.0323   -0.7500    0.0000 C   0  0  0  0  0  0  0  0  0  0  0  0
   -1.0323    0.7500    0.0000 C   0  0  0  0  0  0  0  0  0  0  0  0
    0.3943    1.2135    0.0000 C   0  0  0  0  0  0  0  0  0  0  0  0
   -0.2158   -2.5838    0.0000 H   0  0  0  0  0  0  0  0  0  0  0  0
   -1.3442   -2.2172    0.0000 H   0  0  0  0  0  0  0  0  0  0  0  0
   -2.5241   -0.5932    0.0000 H   0  0  0  0  0  0  0  0  0  0  0  0
   -2.5241    0.5932    0.0000 H   0  0  0  0  0  0  0  0  0  0  0  0
   -1.3442    2.2172    0.0000 H   0  0  0  0  0  0  0  0  0  0  0  0
   -0.2158    2.5838    0.0000 H   0  0  0  0  0  0  0  0  0  0  0  0
    1.6933    1.9635    0.0000 H   0  0  0  0  0  0  0  0  0  0  0  0
    1.6933   -3.4635    0.0000 N   0  0  0  0  0  0  0  0  0  0  0  0
    2.9924   -4.2135    0.0000 C   0  0  0  0  0  0  0  0  0  0  0  0
    3.7424   -2.9145    0.0000 C   0  0  0  0  0  0  0  0  0  0  0  0
    2.7003   -1.8355    0.0000 O   0  0  0  0  0  0  0  0  0  0  0  0
    2.2424   -5.5126    0.0000 C   0  0  0  0  0  0  0  0  0  0  0  0
    1.4924   -6.8116    0.0000 C   0  0  0  0  0  0  0  0  0  0  0  0
    0.7424   -8.1106    0.0000 C   0  0  0  0  0  0  0  0  0  0  0  0
    1.4924   -9.4097    0.0000 O   0  0  0  0  0  0  0  0  0  0  0  0
   -0.7576   -8.1106    0.0000 O   0  0  0  0  0  0  0  0  0  0  0  0
    4.1903   -5.1163    0.0000 H   0  0  0  0  0  0  0  0  0  0  0  0
    0.3126   -4.0496    0.0000 H   0  0  0  0  0  0  0  0  0  0  0  0
    3.5414   -6.2626    0.0000 H   0  0  0  0  0  0  0  0  0  0  0  0
    0.8616   -4.9265    0.0000 H   0  0  0  0  0  0  0  0  0  0  0  0
    2.7914   -7.5616    0.0000 H   0  0  0  0  0  0  0  0  0  0  0  0
    0.1933   -6.0616    0.0000 H   0  0  0  0  0  0  0  0  0  0  0  0
    5.2424   -2.9145    0.0000 N   0  0  0  0  0  0  0  0  0  0  0  0
    5.9924   -1.6154    0.0000 C   0  0  0  0  0  0  0  0  0  0  0  0
    7.2914   -2.3654    0.0000 C   0  0  0  0  0  0  0  0  0  0  0  0
    6.4309   -3.5941    0.0000 O   0  0  0  0  0  0  0  0  0  0  0  0
    7.2914   -2.3654    0.0000 C   0  0  0  0  0  0  0  0  0  0  0  0
    8.5905   -3.1154    0.0000 C   0  0  0  0  0  0  0  0  0  0  0  0
    8.0414   -1.0664    0.0000 C   0  0  0  0  0  0  0  0  0  0  0  0
    9.8895   -3.8654    0.0000 C   0  0  0  0  0  0  0  0  0  0  0  0
    5.8284   -4.2953    0.0000 H   0  0  0  0  0  0  0  0  0  0  0  0
    7.0344   -0.5365    0.0000 H   0  0  0  0  0  0  0  0  0  0  0  0
    7.2392   -3.8645    0.0000 H   0  0  0  0  0  0  0  0  0  0  0  0
    7.6877   -4.3134    0.0000 H   0  0  0  0  0  0  0  0  0  0  0  0
    8.0044   -4.4962    0.0000 H   0  0  0  0  0  0  0  0  0  0  0  0
    8.7914    0.2326    0.0000 H   0  0  0  0  0  0  0  0  0  0  0  0
    9.5357   -0.9355    0.0000 H   0  0  0  0  0  0  0  0  0  0  0  0
    7.2467    0.2057    0.0000 H   0  0  0  0  0  0  0  0  0  0  0  0
   11.0874   -4.7682    0.0000 H   0  0  0  0  0  0  0  0  0  0  0  0
    9.3034   -5.2462    0.0000 H   0  0  0  0  0  0  0  0  0  0  0  0
   11.2490   -3.2317    0.0000 H   0  0  0  0  0  0  0  0  0  0  0  0
    8.5905   -1.6154    0.0000 N   0  0  0  0  0  0  0  0  0  0  0  0
    9.8895   -2.3654    0.0000 C   0  0  0  0  0  0  0  0  0  0  0  0
    9.1395   -3.6645    0.0000 C   0  0  0  0  0  0  0  0  0  0  0  0
    7.8151   -4.3688    0.0000 O   0  0  0  0  0  0  0  0  0  0  0  0
   10.6395   -1.0664    0.0000 C   0  0  0  0  0  0  0  0  0  0  0  0
   11.3895    0.2326    0.0000 O   0  0  0  0  0  0  0  0  0  0  0  0
    8.9534   -0.1600    0.0000 H   0  0  0  0  0  0  0  0  0  0  0  0
   11.2703   -2.9515    0.0000 H   0  0  0  0  0  0  0  0  0  0  0  0
   12.0814   -1.4798    0.0000 H   0  0  0  0  0  0  0  0  0  0  0  0
    9.4416   -0.1637    0.0000 H   0  0  0  0  0  0  0  0  0  0  0  0
   12.8895    0.2326    0.0000 H   0  0  0  0  0  0  0  0  0  0  0  0
    9.8895   -4.9635    0.0000 N   0  0  0  0  0  0  0  0  0  0  0  0
    9.1395   -6.2626    0.0000 C   0  0  0  0  0  0  0  0  0  0  0  0
    8.3895   -7.5616    0.0000 C   0  0  0  0  0  0  0  0  0  0  0  0
    9.1395   -8.8606    0.0000 O   0  0  0  0  0  0  0  0  0  0  0  0
   11.2898   -5.5012    0.0000 H   0  0  0  0  0  0  0  0  0  0  0  0
    7.8405   -5.5126    0.0000 H   0  0  0  0  0  0  0  0  0  0  0  0
   10.3374   -7.1653    0.0000 H   0  0  0  0  0  0  0  0  0  0  0  0
    6.8895   -7.5616    0.0000 N   0  0  0  0  0  0  0  0  0  0  0  0
    6.1395   -8.8606    0.0000 C   0  0  0  0  0  0  0  0  0  0  0  0
    5.3895  -10.1597    0.0000 C   0  0  0  0  0  0  0  0  0  0  0  0
    6.1395  -11.4587    0.0000 O   0  0  0  0  0  0  0  0  0  0  0  0
    6.1395   -6.2626    0.0000 H   0  0  0  0  0  0  0  0  0  0  0  0
    7.4385   -9.6106    0.0000 H   0  0  0  0  0  0  0  0  0  0  0  0
    4.8405   -8.1106    0.0000 H   0  0  0  0  0  0  0  0  0  0  0  0
    3.8895  -10.1597    0.0000 O   0  0  0  0  0  0  0  0  0  0  0  0
    3.1395  -11.4587    0.0000 H   0  0  0  0  0  0  0  0  0  0  0  0
  1  2  1  0
 13  7  1  0
 12  7  1  0
  3 10  1  6
  2  9  1  0
  2  3  1  0
  7 14  1  0
  7  6  1  0
  3  6  1  0
  3  4  1  0
  6 11  1  0
  6  8  1  0
 15  8  1  0
  4  5  2  0
  8 16  1  0
  8 17  1  0
  4 18  1  0
 18 24  1  0
 18 19  1  0
 19 23  1  1
 19 20  1  0
 19 22  1  0
 21 20  2  0
 26 22  1  0
 22 25  1  0
 22 27  1  0
 20 28  1  0
 33 29  1  0
 28 32  1  0
 28 29  1  0
 29 34  1  0
 29 30  1  0
 30 31  2  0
 30 35  1  0
 35 45  1  0
 35 36  1  0
 36 44  1  1
 36 37  1  0
 36 39  1  0
 48 40  1  0
 37 38  2  0
 49 40  1  0
 40 39  1  0
 40 41  1  0
 52 42  1  0
 39 47  1  0
 39 46  1  0
 53 42  1  0
 42 41  1  0
 42 43  1  0
 41 51  1  0
 41 50  1  0
 55 43  1  0
 43 54  1  0
 43 56  1  0
 37 57  1  0
 68 62  1  0
 67 62  1  0
 58 65  1  6
 57 64  1  0
 57 58  1  0
 62 69  1  0
 62 61  1  0
 58 61  1  0
 58 59  1  0
 61 66  1  0
 61 63  1  0
 70 63  1  0
 59 60  2  0
 63 71  1  0
 63 72  1  0
 59 73  1  0
 73 79  1  0
 73 74  1  0
 74 78  1  1
 74 75  1  0
 74 77  1  0
 76 75  2  0
 81 77  1  0
 77 80  1  0
 77 82  1  0
 75 83  1  0
 94 88  1  0
 95 88  1  0
 84 92  1  6
 83 91  1  0
 83 84  1  0
 99 90  1  0
 88 90  1  0
 88 87  1  0
 84 87  1  0
 84 85  1  0
 90101  1  0
 90100  1  0
 98 89  1  0
 87 89  1  0
 87 93  1  6
 85 86  2  0
 89 96  1  0
 89 97  1  0
 85102  1  0
113102  1  0
119108  1  0
115106  1  0
118107  1  0
103114  1  1
102103  1  0
123111  1  0
122111  1  0
111110  2  0
108109  1  0
108107  1  0
108120  1  0
110109  1  0
110112  1  0
125112  1  0
106107  1  0
106103  1  0
106116  1  0
109121  1  0
112124  1  0
107117  1  0
103104  1  0
104105  2  0
104126  1  0
126136  1  0
126127  1  0
127135  1  6
127128  1  0
127130  1  0
139131  1  0
128129  2  0
140131  1  0
131130  1  0
131132  1  0
143133  1  0
130138  1  0
130137  1  0
144133  1  0
133132  1  0
133134  1  0
132142  1  0
132141  1  0
146134  1  0
134145  1  0
134147  1  0
128148  1  0
149157  1  1
148156  1  0
148149  1  0
158152  1  0
149152  1  0
149150  1  0
152153  1  0
152159  1  0
154153  2  0
153155  1  0
150151  2  0
150160  1  0
171165  1  0
170165  1  0
161168  1  6
160167  1  0
160161  1  0
165172  1  0
165164  1  0
161164  1  0
161162  1  0
164169  1  0
164166  1  0
173166  1  0
162163  2  0
166174  1  0
166175  1  0
162176  1  0
189182  1  0
177183  1  1
176182  1  0
176177  1  0
185180  1  0
182188  1  0
182181  1  0
177180  1  0
177178  1  0
180181  1  0
180184  1  0
181187  1  0
181186  1  0
178179  2  0
178190  1  0
190200  1  0
190191  1  0
191199  1  1
191192  1  0
191194  1  0
203195  1  0
192193  2  0
204195  1  0
195194  1  0
195196  1  0
194202  1  0
194201  1  0
198196  2  0
196197  1  0
192205  1  0
216210  1  0
217210  1  0
206214  1  1
205213  1  0
205206  1  0
221212  1  0
210212  1  0
210209  1  0
206209  1  0
206207  1  0
212223  1  0
212222  1  0
220211  1  0
209211  1  0
209215  1  6
207208  2  0
211218  1  0
211219  1  0
207224  1  0
225231  1  6
224230  1  0
224225  1  0
225228  1  0
225226  1  0
233228  1  0
228232  1  0
228229  1  0
226227  2  0
234229  1  0
226235  1  0
240236  1  0
235239  1  0
235236  1  0
236241  1  0
236237  1  0
237238  2  0
237242  1  0
247243  1  0
242246  1  0
242243  1  0
243248  1  0
243244  1  0
244245  2  0
244249  1  0
249250  1  0
M  CHG  5  43   1 111   1 134   1 155  -1 197  -1
M  END
>  <_TriposChargeType>  (1) 
GASTEIGER

$$$$
