ligand_4
     RDKit          2D

292296  0  0  0  0  0  0  0  0999 V2000
   10.3388   -7.7052    0.0000 H   0  0  0  0  0  0  0  0  0  0  0  0
    9.1101   -6.8449    0.0000 N   0  0  0  0  0  0  0  0  0  0  0  0
    7.6835   -7.3084    0.0000 C   0  0  0  0  0  0  0  0  0  0  0  0
    7.2200   -5.8818    0.0000 C   0  0  0  0  0  0  0  0  0  0  0  0
    7.9627   -5.2362    0.0000 O   0  0  0  0  0  0  0  0  0  0  0  0
    8.1470   -8.7350    0.0000 C   0  0  0  0  0  0  0  0  0  0  0  0
    8.6106  -10.1615    0.0000 C   0  0  0  0  0  0  0  0  0  0  0  0
    9.0741  -11.5881    0.0000 C   0  0  0  0  0  0  0  0  0  0  0  0
    9.5376  -13.0147    0.0000 C   0  0  0  0  0  0  0  0  0  0  0  0
   10.0011  -14.4413    0.0000 N   0  0  0  0  0  0  0  0  0  0  0  0
    6.5179   -8.2525    0.0000 H   0  0  0  0  0  0  0  0  0  0  0  0
    9.4220   -5.3776    0.0000 H   0  0  0  0  0  0  0  0  0  0  0  0
    9.6195   -8.4488    0.0000 H   0  0  0  0  0  0  0  0  0  0  0  0
    6.9814   -9.6790    0.0000 H   0  0  0  0  0  0  0  0  0  0  0  0
    7.2511  -10.7955    0.0000 H   0  0  0  0  0  0  0  0  0  0  0  0
   10.0830   -9.8754    0.0000 H   0  0  0  0  0  0  0  0  0  0  0  0
   10.5007  -11.1246    0.0000 H   0  0  0  0  0  0  0  0  0  0  0  0
    7.6475  -12.0517    0.0000 H   0  0  0  0  0  0  0  0  0  0  0  0
    8.1110  -13.4782    0.0000 H   0  0  0  0  0  0  0  0  0  0  0  0
   10.9642  -12.5512    0.0000 H   0  0  0  0  0  0  0  0  0  0  0  0
   10.4647  -15.8679    0.0000 H   0  0  0  0  0  0  0  0  0  0  0  0
   11.4277  -13.9778    0.0000 H   0  0  0  0  0  0  0  0  0  0  0  0
    8.5746  -14.9048    0.0000 H   0  0  0  0  0  0  0  0  0  0  0  0
    5.7528   -5.5699    0.0000 N   0  0  0  0  0  0  0  0  0  0  0  0
    5.2892   -4.1433    0.0000 C   0  0  0  0  0  0  0  0  0  0  0  0
    3.8627   -4.6069    0.0000 C   0  0  0  0  0  0  0  0  0  0  0  0
    4.8006   -5.5778    0.0000 O   0  0  0  0  0  0  0  0  0  0  0  0
    6.7158   -3.6798    0.0000 C   0  0  0  0  0  0  0  0  0  0  0  0
    8.1424   -3.2163    0.0000 C   0  0  0  0  0  0  0  0  0  0  0  0
    9.5690   -2.7528    0.0000 C   0  0  0  0  0  0  0  0  0  0  0  0
   10.9956   -2.2892    0.0000 C   0  0  0  0  0  0  0  0  0  0  0  0
   12.4222   -1.8257    0.0000 N   0  0  0  0  0  0  0  0  0  0  0  0
    5.0031   -2.6709    0.0000 H   0  0  0  0  0  0  0  0  0  0  0  0
    5.3900   -7.0254    0.0000 H   0  0  0  0  0  0  0  0  0  0  0  0
    6.6113   -2.1835    0.0000 H   0  0  0  0  0  0  0  0  0  0  0  0
    7.4238   -4.3634    0.0000 H   0  0  0  0  0  0  0  0  0  0  0  0
    8.2210   -1.7184    0.0000 H   0  0  0  0  0  0  0  0  0  0  0  0
    9.0865   -4.3819    0.0000 H   0  0  0  0  0  0  0  0  0  0  0  0
   10.0325   -4.1793    0.0000 H   0  0  0  0  0  0  0  0  0  0  0  0
    9.2828   -1.2803    0.0000 H   0  0  0  0  0  0  0  0  0  0  0  0
   10.5320   -0.8627    0.0000 H   0  0  0  0  0  0  0  0  0  0  0  0
   11.4591   -3.7158    0.0000 H   0  0  0  0  0  0  0  0  0  0  0  0
   13.8487   -1.3622    0.0000 H   0  0  0  0  0  0  0  0  0  0  0  0
   12.8857   -3.2523    0.0000 H   0  0  0  0  0  0  0  0  0  0  0  0
   11.9586   -0.3991    0.0000 H   0  0  0  0  0  0  0  0  0  0  0  0
    2.7479   -3.6032    0.0000 N   0  0  0  0  0  0  0  0  0  0  0  0
    1.3213   -4.0667    0.0000 C   0  0  0  0  0  0  0  0  0  0  0  0
    1.7849   -5.4933    0.0000 C   0  0  0  0  0  0  0  0  0  0  0  0
    1.7851   -6.9933    0.0000 O   0  0  0  0  0  0  0  0  0  0  0  0
    0.8578   -2.6401    0.0000 C   0  0  0  0  0  0  0  0  0  0  0  0
    0.3943   -1.2135    0.0000 C   0  0  0  0  0  0  0  0  0  0  0  0
    1.2760    0.0000    0.0000 C   0  0  0  0  0  0  0  0  0  0  0  0
   -1.0323   -0.7500    0.0000 C   0  0  0  0  0  0  0  0  0  0  0  0
    0.3943    1.2135    0.0000 N   0  0  0  0  0  0  0  0  0  0  0  0
   -1.0323    0.7500    0.0000 C   0  0  0  0  0  0  0  0  0  0  0  0
   -2.3313   -1.5000    0.0000 C   0  0  0  0  0  0  0  0  0  0  0  0
   -2.3313    1.5000    0.0000 C   0  0  0  0  0  0  0  0  0  0  0  0
   -3.6304   -0.7500    0.0000 C   0  0  0  0  0  0  0  0  0  0  0  0
   -3.6304    0.7500    0.0000 C   0  0  0  0  0  0  0  0  0  0  0  0
    2.3492   -2.9129    0.0000 H   0  0  0  0  0  0  0  0  0  0  0  0
    0.5716   -5.3659    0.0000 H   0  0  0  0  0  0  0  0  0  0  0  0
    1.6606   -2.2658    0.0000 H   0  0  0  0  0  0  0  0  0  0  0  0
    0.1080   -3.9393    0.0000 H   0  0  0  0  0  0  0  0  0  0  0  0
    1.9566    1.3367    0.0000 H   0  0  0  0  0  0  0  0  0  0  0  0
    0.8578    2.6401    0.0000 H   0  0  0  0  0  0  0  0  0  0  0  0
   -3.4636   -2.4839    0.0000 H   0  0  0  0  0  0  0  0  0  0  0  0
   -2.3313    3.0000    0.0000 H   0  0  0  0  0  0  0  0  0  0  0  0
   -5.0723   -1.1634    0.0000 H   0  0  0  0  0  0  0  0  0  0  0  0
   -4.9294    1.5000    0.0000 H   0  0  0  0  0  0  0  0  0  0  0  0
    3.2521   -5.8051    0.0000 N   0  0  0  0  0  0  0  0  0  0  0  0
    4.3668   -4.8015    0.0000 C   0  0  0  0  0  0  0  0  0  0  0  0
    3.2521   -3.7978    0.0000 C   0  0  0  0  0  0  0  0  0  0  0  0
    1.8177   -3.3590    0.0000 O   0  0  0  0  0  0  0  0  0  0  0  0
    5.6659   -5.5515    0.0000 C   0  0  0  0  0  0  0  0  0  0  0  0
    5.3540   -7.0187    0.0000 C   0  0  0  0  0  0  0  0  0  0  0  0
    3.8622   -7.1755    0.0000 C   0  0  0  0  0  0  0  0  0  0  0  0
    5.2485   -3.5879    0.0000 H   0  0  0  0  0  0  0  0  0  0  0  0
    6.5894   -4.3695    0.0000 H   0  0  0  0  0  0  0  0  0  0  0  0
    6.7077   -6.6306    0.0000 H   0  0  0  0  0  0  0  0  0  0  0  0
    6.6904   -7.6998    0.0000 H   0  0  0  0  0  0  0  0  0  0  0  0
    4.8163   -8.4190    0.0000 H   0  0  0  0  0  0  0  0  0  0  0  0
    3.9929   -8.6698    0.0000 H   0  0  0  0  0  0  0  0  0  0  0  0
    2.6966   -8.1195    0.0000 H   0  0  0  0  0  0  0  0  0  0  0  0
    3.5640   -2.3305    0.0000 N   0  0  0  0  0  0  0  0  0  0  0  0
    2.4492   -1.3268    0.0000 C   0  0  0  0  0  0  0  0  0  0  0  0
    1.4456   -2.4416    0.0000 C   0  0  0  0  0  0  0  0  0  0  0  0
    1.7317   -3.9140    0.0000 O   0  0  0  0  0  0  0  0  0  0  0  0
    3.4529   -0.2121    0.0000 C   0  0  0  0  0  0  0  0  0  0  0  0
    4.4566    0.9026    0.0000 C   0  0  0  0  0  0  0  0  0  0  0  0
    5.4603    2.0173    0.0000 C   0  0  0  0  0  0  0  0  0  0  0  0
    6.4640    3.1320    0.0000 C   0  0  0  0  0  0  0  0  0  0  0  0
    7.4677    4.2467    0.0000 N   0  0  0  0  0  0  0  0  0  0  0  0
    1.3345   -0.3231    0.0000 H   0  0  0  0  0  0  0  0  0  0  0  0
    4.9905   -1.8670    0.0000 H   0  0  0  0  0  0  0  0  0  0  0  0
    2.2242    0.6482    0.0000 H   0  0  0  0  0  0  0  0  0  0  0  0
    4.5677   -1.2158    0.0000 H   0  0  0  0  0  0  0  0  0  0  0  0
    5.1375   -0.4340    0.0000 H   0  0  0  0  0  0  0  0  0  0  0  0
    3.4726    2.0347    0.0000 H   0  0  0  0  0  0  0  0  0  0  0  0
    4.4763    3.1494    0.0000 H   0  0  0  0  0  0  0  0  0  0  0  0
    6.7848    1.3132    0.0000 H   0  0  0  0  0  0  0  0  0  0  0  0
    7.6928    2.2717    0.0000 H   0  0  0  0  0  0  0  0  0  0  0  0
    5.4800    4.2641    0.0000 H   0  0  0  0  0  0  0  0  0  0  0  0
    8.4714    5.3615    0.0000 H   0  0  0  0  0  0  0  0  0  0  0  0
    6.3530    5.2504    0.0000 H   0  0  0  0  0  0  0  0  0  0  0  0
    8.5824    3.2431    0.0000 H   0  0  0  0  0  0  0  0  0  0  0  0
   -0.0217   -2.1297    0.0000 N   0  0  0  0  0  0  0  0  0  0  0  0
   -1.0254   -3.2444    0.0000 C   0  0  0  0  0  0  0  0  0  0  0  0
    0.0894   -4.2481    0.0000 C   0  0  0  0  0  0  0  0  0  0  0  0
    1.4488   -3.6141    0.0000 O   0  0  0  0  0  0  0  0  0  0  0  0
   -2.1401   -2.2407    0.0000 C   0  0  0  0  0  0  0  0  0  0  0  0
   -3.2548   -1.2370    0.0000 C   0  0  0  0  0  0  0  0  0  0  0  0
   -4.6814   -1.7005    0.0000 C   0  0  0  0  0  0  0  0  0  0  0  0
   -2.9429    0.2302    0.0000 C   0  0  0  0  0  0  0  0  0  0  0  0
   -5.7961   -0.6968    0.0000 C   0  0  0  0  0  0  0  0  0  0  0  0
   -4.0577    1.2339    0.0000 C   0  0  0  0  0  0  0  0  0  0  0  0
   -5.4842    0.7704    0.0000 C   0  0  0  0  0  0  0  0  0  0  0  0
   -6.5990    1.7741    0.0000 O   0  0  0  0  0  0  0  0  0  0  0  0
   -0.6556   -0.7702    0.0000 H   0  0  0  0  0  0  0  0  0  0  0  0
   -1.7295   -4.5689    0.0000 H   0  0  0  0  0  0  0  0  0  0  0  0
   -1.9575   -0.7519    0.0000 H   0  0  0  0  0  0  0  0  0  0  0  0
   -2.3227   -3.7296    0.0000 H   0  0  0  0  0  0  0  0  0  0  0  0
   -5.1698   -3.1188    0.0000 H   0  0  0  0  0  0  0  0  0  0  0  0
   -1.6709    1.0252    0.0000 H   0  0  0  0  0  0  0  0  0  0  0  0
   -7.2227   -1.1604    0.0000 H   0  0  0  0  0  0  0  0  0  0  0  0
   -3.7458    2.7011    0.0000 H   0  0  0  0  0  0  0  0  0  0  0  0
   -8.0255    1.3105    0.0000 H   0  0  0  0  0  0  0  0  0  0  0  0
   -0.2225   -5.7153    0.0000 N   0  0  0  0  0  0  0  0  0  0  0  0
    0.8922   -6.7190    0.0000 C   0  0  0  0  0  0  0  0  0  0  0  0
    1.8959   -5.6043    0.0000 C   0  0  0  0  0  0  0  0  0  0  0  0
    2.3346   -4.1699    0.0000 O   0  0  0  0  0  0  0  0  0  0  0  0
   -0.1115   -7.8337    0.0000 C   0  0  0  0  0  0  0  0  0  0  0  0
   -1.1152   -8.9485    0.0000 S   0  0  0  0  0  0  0  0  0  0  0  0
   -1.6950   -6.0015    0.0000 H   0  0  0  0  0  0  0  0  0  0  0  0
    1.8763   -7.8511    0.0000 H   0  0  0  0  0  0  0  0  0  0  0  0
    0.8726   -8.9658    0.0000 H   0  0  0  0  0  0  0  0  0  0  0  0
   -1.6003   -7.6511    0.0000 H   0  0  0  0  0  0  0  0  0  0  0  0
   -2.5335   -8.4601    0.0000 H   0  0  0  0  0  0  0  0  0  0  0  0
    3.3631   -5.9162    0.0000 N   0  0  0  0  0  0  0  0  0  0  0  0
    4.3668   -4.8015    0.0000 C   0  0  0  0  0  0  0  0  0  0  0  0
    3.2521   -3.7978    0.0000 C   0  0  0  0  0  0  0  0  0  0  0  0
    2.4799   -2.5118    0.0000 O   0  0  0  0  0  0  0  0  0  0  0  0
    5.4815   -5.8051    0.0000 C   0  0  0  0  0  0  0  0  0  0  0  0
    6.5962   -6.8088    0.0000 C   0  0  0  0  0  0  0  0  0  0  0  0
    8.0228   -6.3453    0.0000 C   0  0  0  0  0  0  0  0  0  0  0  0
    6.2844   -8.2761    0.0000 C   0  0  0  0  0  0  0  0  0  0  0  0
    9.1375   -7.3490    0.0000 C   0  0  0  0  0  0  0  0  0  0  0  0
    7.3991   -9.2798    0.0000 C   0  0  0  0  0  0  0  0  0  0  0  0
    8.8257   -8.8162    0.0000 C   0  0  0  0  0  0  0  0  0  0  0  0
    4.1581   -7.1882    0.0000 H   0  0  0  0  0  0  0  0  0  0  0  0
    5.0709   -3.4770    0.0000 H   0  0  0  0  0  0  0  0  0  0  0  0
    4.9441   -7.2056    0.0000 H   0  0  0  0  0  0  0  0  0  0  0  0
    6.6136   -4.8211    0.0000 H   0  0  0  0  0  0  0  0  0  0  0  0
    8.8399   -5.0874    0.0000 H   0  0  0  0  0  0  0  0  0  0  0  0
    5.0124   -9.0710    0.0000 H   0  0  0  0  0  0  0  0  0  0  0  0
   10.5641   -6.8855    0.0000 H   0  0  0  0  0  0  0  0  0  0  0  0
    6.9107  -10.6980    0.0000 H   0  0  0  0  0  0  0  0  0  0  0  0
   10.0544   -9.6766    0.0000 H   0  0  0  0  0  0  0  0  0  0  0  0
    3.5640   -2.3305    0.0000 N   0  0  0  0  0  0  0  0  0  0  0  0
    2.4492   -1.3268    0.0000 C   0  0  0  0  0  0  0  0  0  0  0  0
    1.4456   -2.4416    0.0000 C   0  0  0  0  0  0  0  0  0  0  0  0
    2.6436   -3.3441    0.0000 O   0  0  0  0  0  0  0  0  0  0  0  0
    3.4529   -0.2121    0.0000 C   0  0  0  0  0  0  0  0  0  0  0  0
    4.4566    0.9026    0.0000 S   0  0  0  0  0  0  0  0  0  0  0  0
    4.8360   -1.5356    0.0000 H   0  0  0  0  0  0  0  0  0  0  0  0
    1.6105   -0.0832    0.0000 H   0  0  0  0  0  0  0  0  0  0  0  0
    2.4689    0.9200    0.0000 H   0  0  0  0  0  0  0  0  0  0  0  0
    4.7774   -0.9163    0.0000 H   0  0  0  0  0  0  0  0  0  0  0  0
    3.6617    2.1746    0.0000 H   0  0  0  0  0  0  0  0  0  0  0  0
   -0.0217   -2.1297    0.0000 N   0  0  0  0  0  0  0  0  0  0  0  0
   -1.0254   -3.2444    0.0000 C   0  0  0  0  0  0  0  0  0  0  0  0
    0.0894   -4.2481    0.0000 C   0  0  0  0  0  0  0  0  0  0  0  0
    1.2550   -3.3040    0.0000 O   0  0  0  0  0  0  0  0  0  0  0  0
   -2.1401   -2.2407    0.0000 C   0  0  0  0  0  0  0  0  0  0  0  0
   -3.2548   -1.2370    0.0000 C   0  0  0  0  0  0  0  0  0  0  0  0
   -4.3695   -0.2333    0.0000 C   0  0  0  0  0  0  0  0  0  0  0  0
   -4.2585   -2.3517    0.0000 C   0  0  0  0  0  0  0  0  0  0  0  0
   -2.0291   -4.3591    0.0000 H   0  0  0  0  0  0  0  0  0  0  0  0
   -0.3078   -0.6572    0.0000 H   0  0  0  0  0  0  0  0  0  0  0  0
   -2.6775   -3.6411    0.0000 H   0  0  0  0  0  0  0  0  0  0  0  0
   -2.3232   -0.7519    0.0000 H   0  0  0  0  0  0  0  0  0  0  0  0
   -2.7174    0.1634    0.0000 H   0  0  0  0  0  0  0  0  0  0  0  0
   -5.2082    1.0103    0.0000 H   0  0  0  0  0  0  0  0  0  0  0  0
   -5.8613   -0.3899    0.0000 H   0  0  0  0  0  0  0  0  0  0  0  0
   -4.3698    1.2667    0.0000 H   0  0  0  0  0  0  0  0  0  0  0  0
   -5.1188   -3.5805    0.0000 H   0  0  0  0  0  0  0  0  0  0  0  0
   -5.7585   -2.3520    0.0000 H   0  0  0  0  0  0  0  0  0  0  0  0
   -3.9213   -3.8133    0.0000 H   0  0  0  0  0  0  0  0  0  0  0  0
   -0.2225   -5.7153    0.0000 N   0  0  0  0  0  0  0  0  0  0  0  0
    0.8922   -6.7190    0.0000 C   0  0  0  0  0  0  0  0  0  0  0  0
    1.8959   -5.6043    0.0000 C   0  0  0  0  0  0  0  0  0  0  0  0
    1.6097   -4.1319    0.0000 O   0  0  0  0  0  0  0  0  0  0  0  0
   -0.1115   -7.8337    0.0000 C   0  0  0  0  0  0  0  0  0  0  0  0
   -1.1152   -8.9485    0.0000 C   0  0  0  0  0  0  0  0  0  0  0  0
    1.0032   -8.8374    0.0000 C   0  0  0  0  0  0  0  0  0  0  0  0
   -1.7205   -5.6367    0.0000 H   0  0  0  0  0  0  0  0  0  0  0  0
    2.1210   -7.5793    0.0000 H   0  0  0  0  0  0  0  0  0  0  0  0
   -1.3402   -6.9734    0.0000 H   0  0  0  0  0  0  0  0  0  0  0  0
   -1.8193  -10.2729    0.0000 H   0  0  0  0  0  0  0  0  0  0  0  0
   -0.2765  -10.1921    0.0000 H   0  0  0  0  0  0  0  0  0  0  0  0
   -1.9539   -7.7049    0.0000 H   0  0  0  0  0  0  0  0  0  0  0  0
    2.1179   -9.8411    0.0000 H   0  0  0  0  0  0  0  0  0  0  0  0
   -0.0005   -9.9521    0.0000 H   0  0  0  0  0  0  0  0  0  0  0  0
    0.2991  -10.1619    0.0000 H   0  0  0  0  0  0  0  0  0  0  0  0
    3.3631   -5.9162    0.0000 N   0  0  0  0  0  0  0  0  0  0  0  0
    4.3668   -4.8015    0.0000 C   0  0  0  0  0  0  0  0  0  0  0  0
    3.2521   -3.7978    0.0000 C   0  0  0  0  0  0  0  0  0  0  0  0
    1.7796   -4.0839    0.0000 O   0  0  0  0  0  0  0  0  0  0  0  0
    5.4815   -5.8051    0.0000 C   0  0  0  0  0  0  0  0  0  0  0  0
    6.5962   -6.8088    0.0000 C   0  0  0  0  0  0  0  0  0  0  0  0
    6.4852   -4.6904    0.0000 C   0  0  0  0  0  0  0  0  0  0  0  0
    7.7110   -7.8125    0.0000 C   0  0  0  0  0  0  0  0  0  0  0  0
    3.8266   -7.3428    0.0000 H   0  0  0  0  0  0  0  0  0  0  0  0
    5.6104   -3.9627    0.0000 H   0  0  0  0  0  0  0  0  0  0  0  0
    5.2989   -7.2940    0.0000 H   0  0  0  0  0  0  0  0  0  0  0  0
    5.2597   -7.4897    0.0000 H   0  0  0  0  0  0  0  0  0  0  0  0
    5.4642   -7.7929    0.0000 H   0  0  0  0  0  0  0  0  0  0  0  0
    7.9850   -4.7169    0.0000 H   0  0  0  0  0  0  0  0  0  0  0  0
    7.8856   -5.2279    0.0000 H   0  0  0  0  0  0  0  0  0  0  0  0
    7.9741   -4.8730    0.0000 H   0  0  0  0  0  0  0  0  0  0  0  0
    8.8257   -8.8162    0.0000 H   0  0  0  0  0  0  0  0  0  0  0  0
    7.1735   -9.2130    0.0000 H   0  0  0  0  0  0  0  0  0  0  0  0
    9.2028   -7.6560    0.0000 H   0  0  0  0  0  0  0  0  0  0  0  0
    3.5640   -2.3305    0.0000 N   0  0  0  0  0  0  0  0  0  0  0  0
    2.4492   -1.3268    0.0000 C   0  0  0  0  0  0  0  0  0  0  0  0
    1.4456   -2.4416    0.0000 C   0  0  0  0  0  0  0  0  0  0  0  0
    2.9271   -2.6758    0.0000 O   0  0  0  0  0  0  0  0  0  0  0  0
    3.4529   -0.2121    0.0000 C   0  0  0  0  0  0  0  0  0  0  0  0
    4.4566    0.9026    0.0000 C   0  0  0  0  0  0  0  0  0  0  0  0
    5.4603    2.0173    0.0000 C   0  0  0  0  0  0  0  0  0  0  0  0
    6.8085    1.3597    0.0000 O   0  0  0  0  0  0  0  0  0  0  0  0
    4.9968    3.4439    0.0000 O   0  0  0  0  0  0  0  0  0  0  0  0
    1.9364    0.0828    0.0000 H   0  0  0  0  0  0  0  0  0  0  0  0
    5.0603   -2.2260    0.0000 H   0  0  0  0  0  0  0  0  0  0  0  0
    2.7721    1.1244    0.0000 H   0  0  0  0  0  0  0  0  0  0  0  0
    4.9084   -0.5748    0.0000 H   0  0  0  0  0  0  0  0  0  0  0  0
    5.4407   -0.2295    0.0000 H   0  0  0  0  0  0  0  0  0  0  0  0
    3.7758    2.2392    0.0000 H   0  0  0  0  0  0  0  0  0  0  0  0
   -0.0217   -2.1297    0.0000 N   0  0  0  0  0  0  0  0  0  0  0  0
   -1.0254   -3.2444    0.0000 C   0  0  0  0  0  0  0  0  0  0  0  0
    0.0894   -4.2481    0.0000 C   0  0  0  0  0  0  0  0  0  0  0  0
    0.3236   -2.7665    0.0000 O   0  0  0  0  0  0  0  0  0  0  0  0
   -2.1401   -2.2407    0.0000 C   0  0  0  0  0  0  0  0  0  0  0  0
   -3.2548   -1.2370    0.0000 C   0  0  0  0  0  0  0  0  0  0  0  0
   -3.1438   -3.3554    0.0000 C   0  0  0  0  0  0  0  0  0  0  0  0
    0.0570   -0.6317    0.0000 H   0  0  0  0  0  0  0  0  0  0  0  0
   -2.2690   -4.0831    0.0000 H   0  0  0  0  0  0  0  0  0  0  0  0
   -1.6026   -0.8403    0.0000 H   0  0  0  0  0  0  0  0  0  0  0  0
   -4.0935    0.0066    0.0000 H   0  0  0  0  0  0  0  0  0  0  0  0
   -4.7466   -1.3936    0.0000 H   0  0  0  0  0  0  0  0  0  0  0  0
   -2.3945   -0.0083    0.0000 H   0  0  0  0  0  0  0  0  0  0  0  0
   -4.1475   -4.4701    0.0000 H   0  0  0  0  0  0  0  0  0  0  0  0
   -4.5993   -2.9927    0.0000 H   0  0  0  0  0  0  0  0  0  0  0  0
   -4.6438   -3.3557    0.0000 H   0  0  0  0  0  0  0  0  0  0  0  0
   -0.2225   -5.7153    0.0000 N   0  0  0  0  0  0  0  0  0  0  0  0
    0.8922   -6.7190    0.0000 C   0  0  0  0  0  0  0  0  0  0  0  0
    1.8959   -5.6043    0.0000 C   0  0  0  0  0  0  0  0  0  0  0  0
    0.9518   -4.4387    0.0000 O   0  0  0  0  0  0  0  0  0  0  0  0
   -0.1115   -7.8337    0.0000 C   0  0  0  0  0  0  0  0  0  0  0  0
   -1.1152   -8.9485    0.0000 C   0  0  0  0  0  0  0  0  0  0  0  0
   -2.1189  -10.0632    0.0000 C   0  0  0  0  0  0  0  0  0  0  0  0
   -2.2299   -7.9448    0.0000 C   0  0  0  0  0  0  0  0  0  0  0  0
    1.5731   -8.0556    0.0000 H   0  0  0  0  0  0  0  0  0  0  0  0
   -1.6569   -5.2766    0.0000 H   0  0  0  0  0  0  0  0  0  0  0  0
    0.5694   -9.1703    0.0000 H   0  0  0  0  0  0  0  0  0  0  0  0
   -1.5119   -7.2963    0.0000 H   0  0  0  0  0  0  0  0  0  0  0  0
   -2.4397   -8.2443    0.0000 H   0  0  0  0  0  0  0  0  0  0  0  0
   -3.1226  -11.1779    0.0000 H   0  0  0  0  0  0  0  0  0  0  0  0
   -3.5193   -9.5257    0.0000 H   0  0  0  0  0  0  0  0  0  0  0  0
   -1.0042  -11.0669    0.0000 H   0  0  0  0  0  0  0  0  0  0  0  0
   -3.3446   -6.9411    0.0000 H   0  0  0  0  0  0  0  0  0  0  0  0
   -3.5665   -8.6256    0.0000 H   0  0  0  0  0  0  0  0  0  0  0  0
   -3.3620   -8.9288    0.0000 H   0  0  0  0  0  0  0  0  0  0  0  0
    3.3631   -5.9162    0.0000 N   0  0  0  0  0  0  0  0  0  0  0  0
    4.3668   -4.8015    0.0000 C   0  0  0  0  0  0  0  0  0  0  0  0
    5.3705   -3.6867    0.0000 C   0  0  0  0  0  0  0  0  0  0  0  0
    6.7512   -3.1005    0.0000 O   0  0  0  0  0  0  0  0  0  0  0  0
    3.4677   -7.4125    0.0000 H   0  0  0  0  0  0  0  0  0  0  0  0
    2.9113   -4.4387    0.0000 H   0  0  0  0  0  0  0  0  0  0  0  0
    4.8797   -6.2110    0.0000 H   0  0  0  0  0  0  0  0  0  0  0  0
    4.9070   -2.2601    0.0000 N   0  0  0  0  0  0  0  0  0  0  0  0
    5.9107   -1.1454    0.0000 C   0  0  0  0  0  0  0  0  0  0  0  0
    7.0254   -2.1491    0.0000 C   0  0  0  0  0  0  0  0  0  0  0  0
    8.2974   -1.3542    0.0000 O   0  0  0  0  0  0  0  0  0  0  0  0
    4.7960   -0.1417    0.0000 C   0  0  0  0  0  0  0  0  0  0  0  0
    3.6812    0.8620    0.0000 O   0  0  0  0  0  0  0  0  0  0  0  0
    3.6081   -3.0104    0.0000 H   0  0  0  0  0  0  0  0  0  0  0  0
    6.9144   -0.0307    0.0000 H   0  0  0  0  0  0  0  0  0  0  0  0
    5.9281    0.8423    0.0000 H   0  0  0  0  0  0  0  0  0  0  0  0
    4.0918   -1.4662    0.0000 H   0  0  0  0  0  0  0  0  0  0  0  0
    3.2676    2.3038    0.0000 H   0  0  0  0  0  0  0  0  0  0  0  0
    6.7135   -3.6163    0.0000 O   0  0  0  0  0  0  0  0  0  0  0  0
    8.0380   -4.3205    0.0000 H   0  0  0  0  0  0  0  0  0  0  0  0
  1  2  1  0
  2 12  1  0
  2  3  1  0
  3 11  1  6
  3  4  1  0
  3  6  1  0
 15  7  1  0
  4  5  2  0
 16  7  1  0
  7  6  1  0
  7  8  1  0
 19  9  1  0
  6 14  1  0
  6 13  1  0
 20  9  1  0
  9  8  1  0
  9 10  1  0
  8 18  1  0
  8 17  1  0
 22 10  1  0
 10 21  1  0
 10 23  1  0
  4 24  1  0
 24 34  1  0
 24 25  1  0
 25 33  1  1
 25 26  1  0
 25 28  1  0
 37 29  1  0
 26 27  2  0
 38 29  1  0
 29 28  1  0
 29 30  1  0
 41 31  1  0
 28 36  1  0
 28 35  1  0
 42 31  1  0
 31 30  1  0
 31 32  1  0
 30 40  1  0
 30 39  1  0
 44 32  1  0
 32 43  1  0
 32 45  1  0
 26 46  1  0
 69 59  1  0
 67 57  1  0
 59 57  2  0
 59 58  1  0
 57 55  1  0
 65 54  1  0
 68 58  1  0
 58 56  2  0
 55 54  1  0
 55 53  2  0
 54 52  1  0
 56 53  1  0
 56 66  1  0
 53 51  1  0
 47 61  1  1
 46 60  1  0
 46 47  1  0
 52 64  1  0
 52 51  2  0
 51 50  1  0
 47 50  1  0
 47 48  1  0
 50 63  1  0
 50 62  1  0
 48 49  2  0
 48 70  1  0
 83 76  1  0
 71 77  1  1
 70 76  1  0
 70 71  1  0
 79 74  1  0
 76 82  1  0
 76 75  1  0
 71 74  1  0
 71 72  1  0
 74 75  1  0
 74 78  1  0
 75 81  1  0
 75 80  1  0
 72 73  2  0
 72 84  1  0
 84 94  1  0
 84 85  1  0
 85 93  1  1
 85 86  1  0
 85 88  1  0
 97 89  1  0
 86 87  2  0
 98 89  1  0
 89 88  1  0
 89 90  1  0
101 91  1  0
 88 96  1  0
 88 95  1  0
102 91  1  0
 91 90  1  0
 91 92  1  0
 90100  1  0
 90 99  1  0
104 92  1  0
 92103  1  0
 92105  1  0
 86106  1  0
117126  1  0
117116  1  0
124114  1  0
116114  1  0
116115  2  0
114112  2  0
125115  1  0
115113  1  0
112122  1  0
112111  1  0
107119  1  1
106118  1  0
106107  1  0
113111  2  0
113123  1  0
111110  1  0
107110  1  0
107108  1  0
110121  1  0
110120  1  0
108109  2  0
108127  1  0
128134  1  1
127133  1  0
127128  1  0
135131  1  0
128131  1  0
128129  1  0
131132  1  0
131136  1  0
129130  2  0
132137  1  0
129138  1  0
157148  1  0
156147  1  0
148147  2  0
148146  1  0
147145  1  0
155146  1  0
146144  2  0
145154  1  0
145143  2  0
139150  1  1
138149  1  0
138139  1  0
144143  1  0
144153  1  0
143142  1  0
139142  1  0
139140  1  0
142152  1  0
142151  1  0
140141  2  0
140158  1  0
159165  1  1
158164  1  0
158159  1  0
166162  1  0
159162  1  0
159160  1  0
162163  1  0
162167  1  0
160161  2  0
163168  1  0
160169  1  0
169178  1  0
169170  1  0
187176  1  0
170177  1  1
170171  1  0
170173  1  0
171172  2  0
186176  1  0
181174  1  0
176185  1  0
176174  1  0
174173  1  0
174175  1  0
173180  1  0
173179  1  0
183175  1  0
175182  1  0
175184  1  0
171188  1  0
199193  1  0
198193  1  0
189196  1  1
188195  1  0
188189  1  0
193200  1  0
193192  1  0
189192  1  0
189190  1  0
192197  1  0
192194  1  0
201194  1  0
190191  2  0
194202  1  0
194203  1  0
190204  1  0
215209  1  0
216209  1  0
205213  1  1
204212  1  0
204205  1  0
220211  1  0
209211  1  0
209208  1  0
205208  1  0
205206  1  0
211222  1  0
211221  1  0
219210  1  0
208210  1  0
208214  1  6
206207  2  0
210217  1  0
210218  1  0
206223  1  0
223233  1  0
223224  1  0
224232  1  1
224225  1  0
224227  1  0
236228  1  0
225226  2  0
237228  1  0
228227  1  0
228229  1  0
227235  1  0
227234  1  0
231229  2  0
229230  1  0
225238  1  0
249243  1  0
248243  1  0
239246  1  1
238245  1  0
238239  1  0
243250  1  0
243242  1  0
239242  1  0
239240  1  0
242247  1  0
242244  1  0
251244  1  0
240241  2  0
244252  1  0
244253  1  0
240254  1  0
254263  1  0
254255  1  0
272261  1  0
255262  1  1
255256  1  0
255258  1  0
256257  2  0
271261  1  0
266259  1  0
261270  1  0
261259  1  0
259258  1  0
259260  1  0
258265  1  0
258264  1  0
268260  1  0
260267  1  0
260269  1  0
256273  1  0
278274  1  0
273277  1  0
273274  1  0
274279  1  0
274275  1  0
275276  2  0
275280  1  0
281287  1  6
280286  1  0
280281  1  0
281284  1  0
281282  1  0
289284  1  0
284288  1  0
284285  1  0
282283  2  0
290285  1  0
282291  1  0
291292  1  0
M  CHG  4  10   1  32   1  92   1 230  -1
M  END
>  <_TriposChargeType>  (1) 
GASTEIGER

$$$$
