ligand_2
     RDKit          2D

296299  0  0  0  0  0  0  0  0999 V2000
    3.9767   -4.4635    0.0000 H   0  0  0  0  0  0  0  0  0  0  0  0
    2.7479   -3.6032    0.0000 N   0  0  0  0  0  0  0  0  0  0  0  0
    1.3213   -4.0667    0.0000 C   0  0  0  0  0  0  0  0  0  0  0  0
    1.7849   -5.4933    0.0000 C   0  0  0  0  0  0  0  0  0  0  0  0
    1.4107   -6.1972    0.0000 O   0  0  0  0  0  0  0  0  0  0  0  0
    0.8578   -2.6401    0.0000 C   0  0  0  0  0  0  0  0  0  0  0  0
    0.3943   -1.2135    0.0000 C   0  0  0  0  0  0  0  0  0  0  0  0
   -1.0323   -0.7500    0.0000 C   0  0  0  0  0  0  0  0  0  0  0  0
    1.2760    0.0000    0.0000 C   0  0  0  0  0  0  0  0  0  0  0  0
   -1.0323    0.7500    0.0000 N   0  0  0  0  0  0  0  0  0  0  0  0
    0.3943    1.2135    0.0000 C   0  0  0  0  0  0  0  0  0  0  0  0
    2.7678    0.1568    0.0000 C   0  0  0  0  0  0  0  0  0  0  0  0
    1.0044    2.5838    0.0000 C   0  0  0  0  0  0  0  0  0  0  0  0
    3.3779    1.5271    0.0000 C   0  0  0  0  0  0  0  0  0  0  0  0
    2.4962    2.7406    0.0000 C   0  0  0  0  0  0  0  0  0  0  0  0
    3.2363   -2.1849    0.0000 H   0  0  0  0  0  0  0  0  0  0  0  0
    0.5122   -3.7063    0.0000 H   0  0  0  0  0  0  0  0  0  0  0  0
    0.0154   -2.9138    0.0000 H   0  0  0  0  0  0  0  0  0  0  0  0
    2.2844   -2.1766    0.0000 H   0  0  0  0  0  0  0  0  0  0  0  0
   -2.1293   -1.7730    0.0000 H   0  0  0  0  0  0  0  0  0  0  0  0
   -2.2458    1.6317    0.0000 H   0  0  0  0  0  0  0  0  0  0  0  0
    3.6494   -1.0567    0.0000 H   0  0  0  0  0  0  0  0  0  0  0  0
    0.1227    3.7974    0.0000 H   0  0  0  0  0  0  0  0  0  0  0  0
    4.7874    2.0402    0.0000 H   0  0  0  0  0  0  0  0  0  0  0  0
    2.7566    4.2179    0.0000 H   0  0  0  0  0  0  0  0  0  0  0  0
    3.2521   -5.8051    0.0000 N   0  0  0  0  0  0  0  0  0  0  0  0
    3.7156   -7.2317    0.0000 C   0  0  0  0  0  0  0  0  0  0  0  0
    2.2890   -7.6953    0.0000 C   0  0  0  0  0  0  0  0  0  0  0  0
    1.5070   -7.2795    0.0000 O   0  0  0  0  0  0  0  0  0  0  0  0
    5.1422   -6.7682    0.0000 C   0  0  0  0  0  0  0  0  0  0  0  0
    6.5688   -6.3047    0.0000 C   0  0  0  0  0  0  0  0  0  0  0  0
    7.9954   -5.8412    0.0000 C   0  0  0  0  0  0  0  0  0  0  0  0
    9.4220   -5.3776    0.0000 C   0  0  0  0  0  0  0  0  0  0  0  0
   10.8485   -4.9141    0.0000 N   0  0  0  0  0  0  0  0  0  0  0  0
    4.0018   -8.7042    0.0000 H   0  0  0  0  0  0  0  0  0  0  0  0
    4.5207   -5.3436    0.0000 H   0  0  0  0  0  0  0  0  0  0  0  0
    5.2468   -8.2646    0.0000 H   0  0  0  0  0  0  0  0  0  0  0  0
    5.4976   -5.6063    0.0000 H   0  0  0  0  0  0  0  0  0  0  0  0
    7.2028   -7.6641    0.0000 H   0  0  0  0  0  0  0  0  0  0  0  0
    6.3112   -4.9795    0.0000 H   0  0  0  0  0  0  0  0  0  0  0  0
    7.7092   -4.3687    0.0000 H   0  0  0  0  0  0  0  0  0  0  0  0
    8.6293   -7.2006    0.0000 H   0  0  0  0  0  0  0  0  0  0  0  0
    9.8855   -6.8042    0.0000 H   0  0  0  0  0  0  0  0  0  0  0  0
    8.9584   -3.9510    0.0000 H   0  0  0  0  0  0  0  0  0  0  0  0
   12.2751   -4.4506    0.0000 H   0  0  0  0  0  0  0  0  0  0  0  0
   10.3850   -3.4875    0.0000 H   0  0  0  0  0  0  0  0  0  0  0  0
   11.3121   -6.3407    0.0000 H   0  0  0  0  0  0  0  0  0  0  0  0
    1.9772   -9.1625    0.0000 N   0  0  0  0  0  0  0  0  0  0  0  0
    0.5506   -9.6260    0.0000 C   0  0  0  0  0  0  0  0  0  0  0  0
    0.0871   -8.1994    0.0000 C   0  0  0  0  0  0  0  0  0  0  0  0
    0.9904   -7.1962    0.0000 O   0  0  0  0  0  0  0  0  0  0  0  0
    1.0141  -11.0526    0.0000 C   0  0  0  0  0  0  0  0  0  0  0  0
   -0.4125  -11.5161    0.0000 O   0  0  0  0  0  0  0  0  0  0  0  0
    1.4776  -12.4792    0.0000 C   0  0  0  0  0  0  0  0  0  0  0  0
    3.2059  -10.0228    0.0000 H   0  0  0  0  0  0  0  0  0  0  0  0
   -0.8760  -10.0895    0.0000 H   0  0  0  0  0  0  0  0  0  0  0  0
    2.4866  -10.7664    0.0000 H   0  0  0  0  0  0  0  0  0  0  0  0
   -0.9009  -12.9344    0.0000 H   0  0  0  0  0  0  0  0  0  0  0  0
    1.9412  -13.9058    0.0000 H   0  0  0  0  0  0  0  0  0  0  0  0
    0.1182  -13.1131    0.0000 H   0  0  0  0  0  0  0  0  0  0  0  0
    2.9042  -12.0156    0.0000 H   0  0  0  0  0  0  0  0  0  0  0  0
   -1.3802   -7.8876    0.0000 N   0  0  0  0  0  0  0  0  0  0  0  0
   -1.8437   -6.4610    0.0000 C   0  0  0  0  0  0  0  0  0  0  0  0
   -0.4171   -5.9974    0.0000 C   0  0  0  0  0  0  0  0  0  0  0  0
    0.4216   -7.2410    0.0000 O   0  0  0  0  0  0  0  0  0  0  0  0
   -3.2703   -6.9245    0.0000 C   0  0  0  0  0  0  0  0  0  0  0  0
   -4.6969   -7.3880    0.0000 C   0  0  0  0  0  0  0  0  0  0  0  0
   -6.1234   -7.8515    0.0000 S   0  0  0  0  0  0  0  0  0  0  0  0
   -6.4353   -9.3188    0.0000 C   0  0  0  0  0  0  0  0  0  0  0  0
   -2.6386   -5.1889    0.0000 H   0  0  0  0  0  0  0  0  0  0  0  0
   -1.5628   -9.3764    0.0000 H   0  0  0  0  0  0  0  0  0  0  0  0
   -3.9042   -5.5650    0.0000 H   0  0  0  0  0  0  0  0  0  0  0  0
   -3.5309   -8.4017    0.0000 H   0  0  0  0  0  0  0  0  0  0  0  0
   -5.3308   -6.0286    0.0000 H   0  0  0  0  0  0  0  0  0  0  0  0
   -4.5923   -8.8844    0.0000 H   0  0  0  0  0  0  0  0  0  0  0  0
   -7.2524  -10.5767    0.0000 H   0  0  0  0  0  0  0  0  0  0  0  0
   -7.9025   -9.0069    0.0000 H   0  0  0  0  0  0  0  0  0  0  0  0
   -5.2863  -10.2831    0.0000 H   0  0  0  0  0  0  0  0  0  0  0  0
   -0.1052   -4.5302    0.0000 N   0  0  0  0  0  0  0  0  0  0  0  0
    1.3213   -4.0667    0.0000 C   0  0  0  0  0  0  0  0  0  0  0  0
    1.7849   -5.4933    0.0000 C   0  0  0  0  0  0  0  0  0  0  0  0
    0.5413   -6.3320    0.0000 O   0  0  0  0  0  0  0  0  0  0  0  0
    0.8578   -2.6401    0.0000 C   0  0  0  0  0  0  0  0  0  0  0  0
    0.3943   -1.2135    0.0000 O   0  0  0  0  0  0  0  0  0  0  0  0
   -1.5607   -4.1675    0.0000 H   0  0  0  0  0  0  0  0  0  0  0  0
    2.2239   -2.8686    0.0000 H   0  0  0  0  0  0  0  0  0  0  0  0
    2.1299   -1.8452    0.0000 H   0  0  0  0  0  0  0  0  0  0  0  0
   -0.6385   -2.7447    0.0000 H   0  0  0  0  0  0  0  0  0  0  0  0
    0.7570    0.2420    0.0000 H   0  0  0  0  0  0  0  0  0  0  0  0
    3.2521   -5.8051    0.0000 N   0  0  0  0  0  0  0  0  0  0  0  0
    4.3668   -4.8015    0.0000 C   0  0  0  0  0  0  0  0  0  0  0  0
    3.2521   -3.7978    0.0000 C   0  0  0  0  0  0  0  0  0  0  0  0
    1.7749   -3.5371    0.0000 O   0  0  0  0  0  0  0  0  0  0  0  0
    5.6659   -5.5515    0.0000 C   0  0  0  0  0  0  0  0  0  0  0  0
    5.3540   -7.0187    0.0000 C   0  0  0  0  0  0  0  0  0  0  0  0
    3.8622   -7.1755    0.0000 C   0  0  0  0  0  0  0  0  0  0  0  0
    5.0940   -3.4895    0.0000 H   0  0  0  0  0  0  0  0  0  0  0  0
    6.2760   -4.1811    0.0000 H   0  0  0  0  0  0  0  0  0  0  0  0
    7.1430   -5.2908    0.0000 H   0  0  0  0  0  0  0  0  0  0  0  0
    6.8155   -7.3561    0.0000 H   0  0  0  0  0  0  0  0  0  0  0  0
    5.5368   -8.5075    0.0000 H   0  0  0  0  0  0  0  0  0  0  0  0
    4.3506   -8.5937    0.0000 H   0  0  0  0  0  0  0  0  0  0  0  0
    2.3658   -7.2800    0.0000 H   0  0  0  0  0  0  0  0  0  0  0  0
    3.5640   -2.3305    0.0000 N   0  0  0  0  0  0  0  0  0  0  0  0
    2.4492   -1.3268    0.0000 C   0  0  0  0  0  0  0  0  0  0  0  0
    1.4456   -2.4416    0.0000 C   0  0  0  0  0  0  0  0  0  0  0  0
    2.9398   -2.3104    0.0000 O   0  0  0  0  0  0  0  0  0  0  0  0
    3.4529   -0.2121    0.0000 C   0  0  0  0  0  0  0  0  0  0  0  0
    4.4566    0.9026    0.0000 C   0  0  0  0  0  0  0  0  0  0  0  0
    5.4603    2.0173    0.0000 C   0  0  0  0  0  0  0  0  0  0  0  0
    6.4640    3.1320    0.0000 C   0  0  0  0  0  0  0  0  0  0  0  0
    7.4677    4.2467    0.0000 N   0  0  0  0  0  0  0  0  0  0  0  0
    2.2927    0.1650    0.0000 H   0  0  0  0  0  0  0  0  0  0  0  0
    5.0364   -2.0444    0.0000 H   0  0  0  0  0  0  0  0  0  0  0  0
    2.9401    1.1975    0.0000 H   0  0  0  0  0  0  0  0  0  0  0  0
    4.6817   -1.0725    0.0000 H   0  0  0  0  0  0  0  0  0  0  0  0
    5.5714   -0.1011    0.0000 H   0  0  0  0  0  0  0  0  0  0  0  0
    3.7758    2.2392    0.0000 H   0  0  0  0  0  0  0  0  0  0  0  0
    4.4763    3.1494    0.0000 H   0  0  0  0  0  0  0  0  0  0  0  0
    6.5751    1.0136    0.0000 H   0  0  0  0  0  0  0  0  0  0  0  0
    7.5787    2.1283    0.0000 H   0  0  0  0  0  0  0  0  0  0  0  0
    5.4800    4.2641    0.0000 H   0  0  0  0  0  0  0  0  0  0  0  0
    8.4714    5.3615    0.0000 H   0  0  0  0  0  0  0  0  0  0  0  0
    6.3530    5.2504    0.0000 H   0  0  0  0  0  0  0  0  0  0  0  0
    8.5824    3.2431    0.0000 H   0  0  0  0  0  0  0  0  0  0  0  0
   -0.0217   -2.1297    0.0000 N   0  0  0  0  0  0  0  0  0  0  0  0
   -1.0254   -3.2444    0.0000 C   0  0  0  0  0  0  0  0  0  0  0  0
   -2.1401   -2.2407    0.0000 C   0  0  0  0  0  0  0  0  0  0  0  0
   -2.5537   -0.7989    0.0000 O   0  0  0  0  0  0  0  0  0  0  0  0
   -2.1401   -2.2407    0.0000 C   0  0  0  0  0  0  0  0  0  0  0  0
   -3.2548   -1.2370    0.0000 C   0  0  0  0  0  0  0  0  0  0  0  0
   -3.1438   -3.3554    0.0000 C   0  0  0  0  0  0  0  0  0  0  0  0
   -4.3695   -0.2333    0.0000 C   0  0  0  0  0  0  0  0  0  0  0  0
   -1.2197   -1.2271    0.0000 H   0  0  0  0  0  0  0  0  0  0  0  0
   -1.3881   -4.6999    0.0000 H   0  0  0  0  0  0  0  0  0  0  0  0
   -1.1364   -1.1260    0.0000 H   0  0  0  0  0  0  0  0  0  0  0  0
   -4.7546   -1.2106    0.0000 H   0  0  0  0  0  0  0  0  0  0  0  0
   -2.7174    0.1634    0.0000 H   0  0  0  0  0  0  0  0  0  0  0  0
   -4.1475   -4.4701    0.0000 H   0  0  0  0  0  0  0  0  0  0  0  0
   -4.6326   -3.5385    0.0000 H   0  0  0  0  0  0  0  0  0  0  0  0
   -2.6309   -4.7650    0.0000 H   0  0  0  0  0  0  0  0  0  0  0  0
   -5.8584   -0.0507    0.0000 H   0  0  0  0  0  0  0  0  0  0  0  0
   -5.8613   -0.3899    0.0000 H   0  0  0  0  0  0  0  0  0  0  0  0
   -4.0068    1.2222    0.0000 H   0  0  0  0  0  0  0  0  0  0  0  0
   -3.5667   -2.7042    0.0000 N   0  0  0  0  0  0  0  0  0  0  0  0
   -4.6814   -1.7005    0.0000 C   0  0  0  0  0  0  0  0  0  0  0  0
   -3.6777   -0.5858    0.0000 C   0  0  0  0  0  0  0  0  0  0  0  0
   -2.2358   -0.1722    0.0000 O   0  0  0  0  0  0  0  0  0  0  0  0
   -5.6851   -2.8153    0.0000 C   0  0  0  0  0  0  0  0  0  0  0  0
   -6.6888   -3.9300    0.0000 C   0  0  0  0  0  0  0  0  0  0  0  0
   -6.7998   -1.8116    0.0000 C   0  0  0  0  0  0  0  0  0  0  0  0
   -4.2243   -4.0524    0.0000 H   0  0  0  0  0  0  0  0  0  0  0  0
   -6.0058   -0.9964    0.0000 H   0  0  0  0  0  0  0  0  0  0  0  0
   -4.8464   -4.0589    0.0000 H   0  0  0  0  0  0  0  0  0  0  0  0
   -7.6925   -5.0447    0.0000 H   0  0  0  0  0  0  0  0  0  0  0  0
   -7.9175   -3.0696    0.0000 H   0  0  0  0  0  0  0  0  0  0  0  0
   -5.4600   -4.7903    0.0000 H   0  0  0  0  0  0  0  0  0  0  0  0
   -7.9145   -0.8079    0.0000 H   0  0  0  0  0  0  0  0  0  0  0  0
   -7.9319   -2.7956    0.0000 H   0  0  0  0  0  0  0  0  0  0  0  0
   -6.4371   -0.3561    0.0000 H   0  0  0  0  0  0  0  0  0  0  0  0
   -4.1412    0.8408    0.0000 N   0  0  0  0  0  0  0  0  0  0  0  0
   -3.1375    1.9555    0.0000 C   0  0  0  0  0  0  0  0  0  0  0  0
   -2.0228    0.9518    0.0000 C   0  0  0  0  0  0  0  0  0  0  0  0
   -2.8399   -0.3062    0.0000 O   0  0  0  0  0  0  0  0  0  0  0  0
   -4.2522    2.9592    0.0000 C   0  0  0  0  0  0  0  0  0  0  0  0
   -5.3670    3.9629    0.0000 C   0  0  0  0  0  0  0  0  0  0  0  0
   -6.4817    4.9666    0.0000 C   0  0  0  0  0  0  0  0  0  0  0  0
   -4.3633    5.0776    0.0000 C   0  0  0  0  0  0  0  0  0  0  0  0
   -2.1338    3.0702    0.0000 H   0  0  0  0  0  0  0  0  0  0  0  0
   -5.0227    2.0544    0.0000 H   0  0  0  0  0  0  0  0  0  0  0  0
   -3.1201    3.9432    0.0000 H   0  0  0  0  0  0  0  0  0  0  0  0
   -5.5888    2.2783    0.0000 H   0  0  0  0  0  0  0  0  0  0  0  0
   -6.3707    2.8482    0.0000 H   0  0  0  0  0  0  0  0  0  0  0  0
   -7.5964    5.9703    0.0000 H   0  0  0  0  0  0  0  0  0  0  0  0
   -7.4854    3.8519    0.0000 H   0  0  0  0  0  0  0  0  0  0  0  0
   -5.6213    6.1953    0.0000 H   0  0  0  0  0  0  0  0  0  0  0  0
   -3.3596    6.1923    0.0000 H   0  0  0  0  0  0  0  0  0  0  0  0
   -5.3473    6.2097    0.0000 H   0  0  0  0  0  0  0  0  0  0  0  0
   -3.1345    4.2173    0.0000 H   0  0  0  0  0  0  0  0  0  0  0  0
   -0.5962    1.4153    0.0000 N   0  0  0  0  0  0  0  0  0  0  0  0
    0.5185    0.4116    0.0000 C   0  0  0  0  0  0  0  0  0  0  0  0
   -0.4852   -0.7031    0.0000 C   0  0  0  0  0  0  0  0  0  0  0  0
   -0.1990   -2.1756    0.0000 O   0  0  0  0  0  0  0  0  0  0  0  0
    1.5222    1.5263    0.0000 C   0  0  0  0  0  0  0  0  0  0  0  0
    2.5259    2.6410    0.0000 C   0  0  0  0  0  0  0  0  0  0  0  0
    3.5296    3.7558    0.0000 C   0  0  0  0  0  0  0  0  0  0  0  0
    3.0661    5.1824    0.0000 O   0  0  0  0  0  0  0  0  0  0  0  0
    5.0287    3.8082    0.0000 O   0  0  0  0  0  0  0  0  0  0  0  0
    2.0185    0.4119    0.0000 H   0  0  0  0  0  0  0  0  0  0  0  0
   -0.6486    2.9144    0.0000 H   0  0  0  0  0  0  0  0  0  0  0  0
    3.0110    1.3437    0.0000 H   0  0  0  0  0  0  0  0  0  0  0  0
    0.6835    2.7699    0.0000 H   0  0  0  0  0  0  0  0  0  0  0  0
    3.9263    2.1036    0.0000 H   0  0  0  0  0  0  0  0  0  0  0  0
    1.4112    3.6447    0.0000 H   0  0  0  0  0  0  0  0  0  0  0  0
   -1.9524   -0.3912    0.0000 N   0  0  0  0  0  0  0  0  0  0  0  0
   -2.9561   -1.5060    0.0000 C   0  0  0  0  0  0  0  0  0  0  0  0
   -1.8414   -2.5096    0.0000 C   0  0  0  0  0  0  0  0  0  0  0  0
   -0.6758   -1.5656    0.0000 O   0  0  0  0  0  0  0  0  0  0  0  0
   -4.0708   -0.5023    0.0000 C   0  0  0  0  0  0  0  0  0  0  0  0
   -5.1855    0.5014    0.0000 C   0  0  0  0  0  0  0  0  0  0  0  0
   -6.6835    0.5801    0.0000 O   0  0  0  0  0  0  0  0  0  0  0  0
   -5.0549    1.9957    0.0000 O   0  0  0  0  0  0  0  0  0  0  0  0
   -2.7474    0.8808    0.0000 H   0  0  0  0  0  0  0  0  0  0  0  0
   -3.8164   -2.7347    0.0000 H   0  0  0  0  0  0  0  0  0  0  0  0
   -3.3667    0.8222    0.0000 H   0  0  0  0  0  0  0  0  0  0  0  0
   -5.0745   -1.6170    0.0000 H   0  0  0  0  0  0  0  0  0  0  0  0
   -2.1533   -3.9769    0.0000 N   0  0  0  0  0  0  0  0  0  0  0  0
   -1.0385   -4.9806    0.0000 C   0  0  0  0  0  0  0  0  0  0  0  0
   -0.0349   -3.8658    0.0000 C   0  0  0  0  0  0  0  0  0  0  0  0
   -0.6688   -2.5064    0.0000 O   0  0  0  0  0  0  0  0  0  0  0  0
   -2.0422   -6.0953    0.0000 C   0  0  0  0  0  0  0  0  0  0  0  0
   -3.0459   -7.2100    0.0000 C   0  0  0  0  0  0  0  0  0  0  0  0
   -4.0496   -8.3247    0.0000 C   0  0  0  0  0  0  0  0  0  0  0  0
   -5.0533   -9.4394    0.0000 C   0  0  0  0  0  0  0  0  0  0  0  0
   -6.0570  -10.5542    0.0000 N   0  0  0  0  0  0  0  0  0  0  0  0
   -0.3577   -6.3171    0.0000 H   0  0  0  0  0  0  0  0  0  0  0  0
   -3.5127   -4.6108    0.0000 H   0  0  0  0  0  0  0  0  0  0  0  0
   -0.8135   -6.9556    0.0000 H   0  0  0  0  0  0  0  0  0  0  0  0
   -3.2710   -5.2350    0.0000 H   0  0  0  0  0  0  0  0  0  0  0  0
   -1.9312   -8.2137    0.0000 H   0  0  0  0  0  0  0  0  0  0  0  0
   -4.4464   -6.6726    0.0000 H   0  0  0  0  0  0  0  0  0  0  0  0
   -3.7124   -9.7863    0.0000 H   0  0  0  0  0  0  0  0  0  0  0  0
   -5.5496   -8.3250    0.0000 H   0  0  0  0  0  0  0  0  0  0  0  0
   -4.2146  -10.6830    0.0000 H   0  0  0  0  0  0  0  0  0  0  0  0
   -6.5088   -9.0767    0.0000 H   0  0  0  0  0  0  0  0  0  0  0  0
   -7.0607  -11.6689    0.0000 H   0  0  0  0  0  0  0  0  0  0  0  0
   -4.9423  -11.5578    0.0000 H   0  0  0  0  0  0  0  0  0  0  0  0
   -7.3815   -9.8500    0.0000 H   0  0  0  0  0  0  0  0  0  0  0  0
    1.4324   -4.1777    0.0000 N   0  0  0  0  0  0  0  0  0  0  0  0
    2.4361   -3.0630    0.0000 C   0  0  0  0  0  0  0  0  0  0  0  0
    1.3213   -2.0593    0.0000 C   0  0  0  0  0  0  0  0  0  0  0  0
    0.0357   -1.2865    0.0000 O   0  0  0  0  0  0  0  0  0  0  0  0
    3.5508   -4.0667    0.0000 C   0  0  0  0  0  0  0  0  0  0  0  0
    4.6655   -5.0704    0.0000 C   0  0  0  0  0  0  0  0  0  0  0  0
    5.7802   -6.0741    0.0000 C   0  0  0  0  0  0  0  0  0  0  0  0
    6.0150   -7.5556    0.0000 O   0  0  0  0  0  0  0  0  0  0  0  0
    7.2068   -5.6106    0.0000 N   0  0  0  0  0  0  0  0  0  0  0  0
    3.5682   -2.0789    0.0000 H   0  0  0  0  0  0  0  0  0  0  0  0
    0.9936   -5.6121    0.0000 H   0  0  0  0  0  0  0  0  0  0  0  0
    4.5545   -2.9520    0.0000 H   0  0  0  0  0  0  0  0  0  0  0  0
    2.6905   -5.2954    0.0000 H   0  0  0  0  0  0  0  0  0  0  0  0
    3.6618   -6.1851    0.0000 H   0  0  0  0  0  0  0  0  0  0  0  0
    5.6692   -3.9557    0.0000 H   0  0  0  0  0  0  0  0  0  0  0  0
    8.1909   -6.7427    0.0000 H   0  0  0  0  0  0  0  0  0  0  0  0
    7.3375   -4.1163    0.0000 H   0  0  0  0  0  0  0  0  0  0  0  0
    1.6332   -0.5921    0.0000 N   0  0  0  0  0  0  0  0  0  0  0  0
    0.5185    0.4116    0.0000 C   0  0  0  0  0  0  0  0  0  0  0  0
   -0.4852   -0.7031    0.0000 C   0  0  0  0  0  0  0  0  0  0  0  0
    0.4589   -1.8687    0.0000 O   0  0  0  0  0  0  0  0  0  0  0  0
    1.5222    1.5263    0.0000 C   0  0  0  0  0  0  0  0  0  0  0  0
    0.0056    1.8212    0.0000 H   0  0  0  0  0  0  0  0  0  0  0  0
    3.1296   -0.4875    0.0000 H   0  0  0  0  0  0  0  0  0  0  0  0
    2.9318    2.0392    0.0000 H   0  0  0  0  0  0  0  0  0  0  0  0
    1.0093    2.9359    0.0000 H   0  0  0  0  0  0  0  0  0  0  0  0
    2.9226    0.9889    0.0000 H   0  0  0  0  0  0  0  0  0  0  0  0
   -1.9524   -0.3912    0.0000 N   0  0  0  0  0  0  0  0  0  0  0  0
   -2.9561   -1.5060    0.0000 C   0  0  0  0  0  0  0  0  0  0  0  0
   -1.8414   -2.5096    0.0000 C   0  0  0  0  0  0  0  0  0  0  0  0
   -0.9388   -1.3116    0.0000 O   0  0  0  0  0  0  0  0  0  0  0  0
   -4.0708   -0.5023    0.0000 C   0  0  0  0  0  0  0  0  0  0  0  0
   -5.1855    0.5014    0.0000 C   0  0  0  0  0  0  0  0  0  0  0  0
   -6.3003    1.5051    0.0000 C   0  0  0  0  0  0  0  0  0  0  0  0
   -6.1892   -0.6133    0.0000 C   0  0  0  0  0  0  0  0  0  0  0  0
   -3.4936   -2.9064    0.0000 H   0  0  0  0  0  0  0  0  0  0  0  0
   -2.4159    1.0353    0.0000 H   0  0  0  0  0  0  0  0  0  0  0  0
   -5.3144   -1.3410    0.0000 H   0  0  0  0  0  0  0  0  0  0  0  0
   -3.0671    0.6125    0.0000 H   0  0  0  0  0  0  0  0  0  0  0  0
   -4.3252    1.7302    0.0000 H   0  0  0  0  0  0  0  0  0  0  0  0
   -7.4150    2.5088    0.0000 H   0  0  0  0  0  0  0  0  0  0  0  0
   -7.6368    0.8243    0.0000 H   0  0  0  0  0  0  0  0  0  0  0  0
   -5.5961    2.8296    0.0000 H   0  0  0  0  0  0  0  0  0  0  0  0
   -7.4328   -1.4520    0.0000 H   0  0  0  0  0  0  0  0  0  0  0  0
   -7.4180    0.2471    0.0000 H   0  0  0  0  0  0  0  0  0  0  0  0
   -7.5897   -0.0758    0.0000 H   0  0  0  0  0  0  0  0  0  0  0  0
   -2.1533   -3.9769    0.0000 N   0  0  0  0  0  0  0  0  0  0  0  0
   -1.0385   -4.9806    0.0000 C   0  0  0  0  0  0  0  0  0  0  0  0
   -0.0349   -3.8658    0.0000 C   0  0  0  0  0  0  0  0  0  0  0  0
    1.4642   -3.8134    0.0000 O   0  0  0  0  0  0  0  0  0  0  0  0
   -2.0422   -6.0953    0.0000 C   0  0  0  0  0  0  0  0  0  0  0  0
   -3.0459   -7.2100    0.0000 C   0  0  0  0  0  0  0  0  0  0  0  0
   -2.5824   -8.6366    0.0000 C   0  0  0  0  0  0  0  0  0  0  0  0
   -4.5132   -6.8981    0.0000 C   0  0  0  0  0  0  0  0  0  0  0  0
   -3.5861   -9.7513    0.0000 C   0  0  0  0  0  0  0  0  0  0  0  0
   -5.5169   -8.0129    0.0000 C   0  0  0  0  0  0  0  0  0  0  0  0
   -5.0533   -9.4394    0.0000 C   0  0  0  0  0  0  0  0  0  0  0  0
   -3.6257   -4.2630    0.0000 H   0  0  0  0  0  0  0  0  0  0  0  0
   -0.0545   -6.1127    0.0000 H   0  0  0  0  0  0  0  0  0  0  0  0
   -3.0263   -4.9632    0.0000 H   0  0  0  0  0  0  0  0  0  0  0  0
   -0.6418   -6.6327    0.0000 H   0  0  0  0  0  0  0  0  0  0  0  0
   -1.1152   -8.9485    0.0000 H   0  0  0  0  0  0  0  0  0  0  0  0
   -4.6177   -5.4018    0.0000 H   0  0  0  0  0  0  0  0  0  0  0  0
   -3.1226  -11.1779    0.0000 H   0  0  0  0  0  0  0  0  0  0  0  0
   -7.0159   -8.0653    0.0000 H   0  0  0  0  0  0  0  0  0  0  0  0
   -6.1854  -10.4235    0.0000 H   0  0  0  0  0  0  0  0  0  0  0  0
   -0.4984   -2.4393    0.0000 O   0  0  0  0  0  0  0  0  0  0  0  0
   -0.1357   -0.9838    0.0000 H   0  0  0  0  0  0  0  0  0  0  0  0
  1  2  1  0
 25 15  1  0
 23 13  1  0
 15 13  2  0
 15 14  1  0
 13 11  1  0
 21 10  1  0
 24 14  1  0
 14 12  2  0
 11 10  1  0
 11  9  2  0
 10  8  1  0
 12  9  1  0
 12 22  1  0
  9  7  1  0
  3 17  1  1
  2 16  1  0
  2  3  1  0
  8 20  1  0
  8  7  2  0
  7  6  1  0
  3  6  1  0
  3  4  1  0
  6 19  1  0
  6 18  1  0
  4  5  2  0
  4 26  1  0
 26 36  1  0
 26 27  1  0
 27 35  1  6
 27 28  1  0
 27 30  1  0
 39 31  1  0
 28 29  2  0
 40 31  1  0
 31 30  1  0
 31 32  1  0
 43 33  1  0
 30 38  1  0
 30 37  1  0
 44 33  1  0
 33 32  1  0
 33 34  1  0
 32 42  1  0
 32 41  1  0
 46 34  1  0
 34 45  1  0
 34 47  1  0
 28 48  1  0
 49 56  1  6
 48 55  1  0
 48 49  1  0
 53 58  1  0
 53 52  1  0
 49 52  1  0
 49 50  1  0
 52 57  1  6
 52 54  1  0
 61 54  1  0
 50 51  2  0
 54 59  1  0
 54 60  1  0
 50 62  1  0
 62 71  1  0
 62 63  1  0
 63 70  1  6
 63 64  1  0
 63 66  1  0
 64 65  2  0
 75 67  1  0
 68 67  1  0
 68 69  1  0
 67 66  1  0
 67 74  1  0
 66 73  1  0
 66 72  1  0
 77 69  1  0
 69 78  1  0
 69 76  1  0
 64 79  1  0
 80 86  1  6
 79 85  1  0
 79 80  1  0
 80 83  1  0
 80 81  1  0
 88 83  1  0
 83 87  1  0
 83 84  1  0
 81 82  2  0
 89 84  1  0
 81 90  1  0
103 96  1  0
 91 97  1  1
 90 96  1  0
 90 91  1  0
 99 94  1  0
 96102  1  0
 96 95  1  0
 91 94  1  0
 91 92  1  0
 94 95  1  0
 94 98  1  0
 95101  1  0
 95100  1  0
 92 93  2  0
 92104  1  0
104114  1  0
104105  1  0
105113  1  1
105106  1  0
105108  1  0
117109  1  0
106107  2  0
118109  1  0
109108  1  0
109110  1  0
121111  1  0
108116  1  0
108115  1  0
122111  1  0
111110  1  0
111112  1  0
110120  1  0
110119  1  0
124112  1  0
112123  1  0
112125  1  0
106126  1  0
137131  1  0
138131  1  0
127135  1  1
126134  1  0
126127  1  0
142133  1  0
131133  1  0
131130  1  0
127130  1  0
127128  1  0
133144  1  0
133143  1  0
141132  1  0
130132  1  0
130136  1  6
128129  2  0
132139  1  0
132140  1  0
128145  1  0
156150  1  0
155150  1  0
146153  1  6
145152  1  0
145146  1  0
150157  1  0
150149  1  0
146149  1  0
146147  1  0
149154  1  0
149151  1  0
158151  1  0
147148  2  0
151159  1  0
151160  1  0
147161  1  0
161170  1  0
161162  1  0
179168  1  0
162169  1  6
162163  1  0
162165  1  0
163164  2  0
178168  1  0
173166  1  0
168177  1  0
168166  1  0
166165  1  0
166167  1  0
165172  1  0
165171  1  0
175167  1  0
167174  1  0
167176  1  0
163180  1  0
180190  1  0
180181  1  0
181189  1  6
181182  1  0
181184  1  0
193185  1  0
182183  2  0
194185  1  0
185184  1  0
185186  1  0
184192  1  0
184191  1  0
188186  2  0
186187  1  0
182195  1  0
196204  1  1
195203  1  0
195196  1  0
205199  1  0
196199  1  0
196197  1  0
199200  1  0
199206  1  0
201200  2  0
200202  1  0
197198  2  0
197207  1  0
207217  1  0
207208  1  0
208216  1  1
208209  1  0
208211  1  0
220212  1  0
209210  2  0
221212  1  0
212211  1  0
212213  1  0
224214  1  0
211219  1  0
211218  1  0
225214  1  0
214213  1  0
214215  1  0
213223  1  0
213222  1  0
227215  1  0
215226  1  0
215228  1  0
209229  1  0
229239  1  0
229230  1  0
230238  1  1
230231  1  0
230233  1  0
232231  2  0
242234  1  0
243234  1  0
234233  1  0
234235  1  0
233241  1  0
233240  1  0
236235  2  0
235237  1  0
237244  1  0
237245  1  0
231246  1  0
246252  1  0
246247  1  0
247251  1  1
247248  1  0
247250  1  0
249248  2  0
254250  1  0
250253  1  0
250255  1  0
248256  1  0
256265  1  0
256257  1  0
274263  1  0
257264  1  1
257258  1  0
257260  1  0
258259  2  0
273263  1  0
268261  1  0
263272  1  0
263261  1  0
261260  1  0
261262  1  0
260267  1  0
260266  1  0
270262  1  0
262269  1  0
262271  1  0
258275  1  0
294285  1  0
293284  1  0
285284  2  0
285283  1  0
284282  1  0
292283  1  0
283281  2  0
282291  1  0
282280  2  0
276287  1  1
275286  1  0
275276  1  0
281280  1  0
281290  1  0
280279  1  0
276279  1  0
276277  1  0
279289  1  0
279288  1  0
277278  2  0
277295  1  0
295296  1  0
M  CHG  5  34   1 112   1 187  -1 202  -1 215   1
M  END
>  <_TriposChargeType>  (1) 
GASTEIGER

$$$$
