@<TRIPOS>MOLECULE
peptide_28_EQGAKIMDGQ
 22 21 0 0 0
SMALL
GASTEIGER

@<TRIPOS>ATOM
      1 N           1.2354    0.4993    1.4185 N.3     1  ILE1       -0.3182
      2 CA          1.0136   -0.3847    0.2697 C.3     1  ILE1        0.1058
      3 CB         -0.3593   -0.0934   -0.4118 C.3     1  ILE1       -0.0185
      4 CG2        -0.5973   -1.0670   -1.5831 C.3     1  ILE1       -0.0605
      5 CG1        -1.5514   -0.1861    0.5835 C.3     1  ILE1       -0.0514
      6 CD1        -1.9460    1.1768    1.1574 C.3     1  ILE1       -0.0650
      7 C           2.1424   -0.2005   -0.7129 C.2     1  ILE1        0.3220
      8 O           2.8418   -1.1882   -1.0646 O.2     1  ILE1       -0.2492
      9 OXT         2.4103    1.0607   -1.2374 O.3     1  ILE1       -0.4795
     10 H1          2.2256    0.3946    1.7417 H       1  ILE1        0.1190
     11 H2          0.6592    0.1534    2.2192 H       1  ILE1        0.1190
     12 HA          1.0209   -1.4419    0.6247 H       1  ILE1        0.0577
     13 HB         -0.3291    0.9313   -0.8474 H       1  ILE1        0.0318
     14 HG21       -1.5632   -0.8400   -2.0831 H       1  ILE1        0.0233
     15 HG22       -0.6193   -2.1167   -1.2189 H       1  ILE1        0.0233
     16 HG23        0.1973   -0.9687   -2.3518 H       1  ILE1        0.0233
     17 HG11       -2.4567   -0.5905    0.0791 H       1  ILE1        0.0266
     18 HG12       -1.3200   -0.8898    1.4121 H       1  ILE1        0.0266
     19 HD11       -2.7788    1.0470    1.8803 H       1  ILE1        0.0230
     20 HD12       -2.2907    1.8481    0.3422 H       1  ILE1        0.0230
     21 HD13       -1.0982    1.6584    1.6836 H       1  ILE1        0.0230
     22 HXT         3.1632    1.1981   -1.9010 H       1  ILE1        0.2951
@<TRIPOS>BOND
     1     1     2    1
     2     2     3    1
     3     3     4    1
     4     3     5    1
     5     5     6    1
     6     2     7    1
     7     7     8    2
     8     7     9    1
     9     1    10    1
    10     1    11    1
    11     2    12    1
    12     3    13    1
    13     4    14    1
    14     4    15    1
    15     4    16    1
    16     5    17    1
    17     5    18    1
    18     6    19    1
    19     6    20    1
    20     6    21    1
    21     9    22    1
