@<TRIPOS>MOLECULE
peptide_26_AYRPQMEKAN
 24 24 0 0 0
SMALL
GASTEIGER

@<TRIPOS>ATOM
      1 N          -1.6454   -1.2483   -1.0862 N.3     1  TYR1       -0.3181
      2 CA         -1.8040   -0.4894    0.1574 C.3     1  TYR1        0.1072
      3 CB         -0.9744    0.8059    0.1127 C.3     1  TYR1       -0.0020
      4 CG          0.4995    0.5102    0.0003 C.ar    1  TYR1       -0.0451
      5 CD1         1.1259    0.4844   -1.2568 C.ar    1  TYR1       -0.0551
      6 CE1         2.4871    0.1818   -1.3600 C.ar    1  TYR1       -0.0199
      7 CZ          3.2335   -0.1050   -0.2124 C.ar    1  TYR1        0.1169
      8 OH          4.5887   -0.4047   -0.3303 O.3     1  TYR1       -0.5068
      9 CE2         2.6113   -0.0904    1.0433 C.ar    1  TYR1       -0.0199
     10 CD2         1.2502    0.2117    1.1491 C.ar    1  TYR1       -0.0551
     11 C          -3.2553   -0.1774    0.4110 C.2     1  TYR1        0.3220
     12 O          -3.9163    0.5033   -0.4193 O.2     1  TYR1       -0.2492
     13 OXT        -3.8688   -0.6396    1.5712 O.3     1  TYR1       -0.4795
     14 H1         -2.0468   -0.7028   -1.8840 H       1  TYR1        0.1190
     15 H2         -2.1902   -2.1381   -1.0080 H       1  TYR1        0.1190
     16 HA         -1.4317   -1.1141    1.0002 H       1  TYR1        0.0577
     17 HB1        -1.3025    1.4394   -0.7413 H       1  TYR1        0.0334
     18 HB2        -1.1565    1.3946    1.0393 H       1  TYR1        0.0334
     19 HD1         0.5604    0.6963   -2.1558 H       1  TYR1        0.0621
     20 HE1         2.9618    0.1674   -2.3328 H       1  TYR1        0.0654
     21 HH          5.1564   -0.6175    0.4817 H       1  TYR1        0.2921
     22 HE2         3.1801   -0.3157    1.9364 H       1  TYR1        0.0654
     23 HD2         0.7806    0.2117    2.1251 H       1  TYR1        0.0621
     24 HXT        -4.8436   -0.4379    1.7592 H       1  TYR1        0.2951
@<TRIPOS>BOND
     1     1     2    1
     2     2     3    1
     3     3     4    1
     4     4     5   ar
     5     5     6   ar
     6     6     7   ar
     7     7     8    1
     8     7     9   ar
     9     9    10   ar
    10     2    11    1
    11    11    12    2
    12    11    13    1
    13    10     4   ar
    14     1    14    1
    15     1    15    1
    16     2    16    1
    17     3    17    1
    18     3    18    1
    19     5    19    1
    20     6    20    1
    21     8    21    1
    22     9    22    1
    23    10    23    1
    24    13    24    1
