@<TRIPOS>MOLECULE
peptide_49_HCYQHNWYDR
 27 28 0 0 0
SMALL
GASTEIGER

@<TRIPOS>ATOM
      1 N          -2.8649    0.4320    2.2151 N.3     1  TRP1       -0.3181
      2 CA         -1.9501    0.4181    1.0716 C.3     1  TRP1        0.1073
      3 CB         -1.2455   -0.9484    0.9449 C.3     1  TRP1       -0.0001
      4 CG         -0.1872   -0.9270   -0.1208 C.ar    1  TRP1       -0.0204
      5 CD1        -0.3246   -1.3615   -1.4359 C.ar    1  TRP1        0.0060
      6 NE1         0.8100   -1.1231   -2.1326 N.ar    1  TRP1       -0.3604
      7 CE2         1.6574   -0.5323   -1.2720 C.ar    1  TRP1        0.0467
      8 CZ2         2.9502   -0.0808   -1.5344 C.ar    1  TRP1       -0.0378
      9 CH2         3.6587    0.5310   -0.4839 C.ar    1  TRP1       -0.0598
     10 CZ3         3.0648    0.6792    0.7893 C.ar    1  TRP1       -0.0611
     11 CE3         1.7575    0.2158    1.0245 C.ar    1  TRP1       -0.0523
     12 CD2         1.0825   -0.3909   -0.0350 C.ar    1  TRP1        0.0029
     13 C          -2.7040    0.7614   -0.1832 C.2     1  TRP1        0.3220
     14 O          -3.7377    0.1145   -0.5034 O.2     1  TRP1       -0.2492
     15 OXT        -2.2394    1.7783   -1.0116 O.3     1  TRP1       -0.4795
     16 H1         -2.3041    0.3273    3.0921 H       1  TRP1        0.1190
     17 H2         -3.5078   -0.3920    2.1590 H       1  TRP1        0.1190
     18 HA         -1.1785    1.2028    1.2395 H       1  TRP1        0.0577
     19 HB1        -0.7677   -1.2111    1.9132 H       1  TRP1        0.0334
     20 HB2        -1.9883   -1.7437    0.7154 H       1  TRP1        0.0334
     21 HD1        -1.2109   -1.8141   -1.8614 H       1  TRP1        0.0810
     22 HE1         0.9830   -1.3415   -3.1390 H       1  TRP1        0.1653
     23 HZ2         3.3947   -0.1938   -2.5147 H       1  TRP1        0.0638
     24 HH2         4.6644    0.8929   -0.6535 H       1  TRP1        0.0618
     25 HZ3         3.6184    1.1539    1.5890 H       1  TRP1        0.0618
     26 HE3         1.2948    0.3290    1.9963 H       1  TRP1        0.0624
     27 HXT        -2.7257    2.0133   -1.8685 H       1  TRP1        0.2951
@<TRIPOS>BOND
     1     1     2    1
     2     2     3    1
     3     3     4    1
     4     4     5   ar
     5     5     6   ar
     6     6     7   ar
     7     7     8   ar
     8     8     9   ar
     9     9    10   ar
    10    10    11   ar
    11    11    12   ar
    12     2    13    1
    13    13    14    2
    14    13    15    1
    15    12     4   ar
    16    12     7   ar
    17     1    16    1
    18     1    17    1
    19     2    18    1
    20     3    19    1
    21     3    20    1
    22     5    21    1
    23     6    22    1
    24     8    23    1
    25     9    24    1
    26    10    25    1
    27    11    26    1
    28    15    27    1
