@<TRIPOS>MOLECULE
peptide_9_VGAGRGRCNS
 19 18 0 0 0
SMALL
GASTEIGER

@<TRIPOS>ATOM
      1 N           1.2638   -1.5305   -0.3325 N.3     1  VAL1       -0.3182
      2 CA          0.4833   -0.3254   -0.6274 C.3     1  VAL1        0.1056
      3 CB         -0.5433   -0.0491    0.5045 C.3     1  VAL1       -0.0211
      4 CG1        -1.4092    1.1829    0.1910 C.3     1  VAL1       -0.0607
      5 CG2        -1.4541   -1.2660    0.7341 C.3     1  VAL1       -0.0607
      6 C           1.4110    0.8466   -0.8328 C.2     1  VAL1        0.3220
      7 O           1.4859    1.4010   -1.9620 O.2     1  VAL1       -0.2492
      8 OXT         2.1924    1.3128    0.2207 O.3     1  VAL1       -0.4795
      9 H1          1.8568   -1.3648    0.5138 H       1  VAL1        0.1190
     10 H2          1.9069   -1.7211   -1.1357 H       1  VAL1        0.1190
     11 HA         -0.0805   -0.5028   -1.5718 H       1  VAL1        0.0576
     12 HB          0.0057    0.1478    1.4525 H       1  VAL1        0.0316
     13 HG11       -2.1504    1.3492    1.0016 H       1  VAL1        0.0233
     14 HG12       -1.9531    1.0452   -0.7682 H       1  VAL1        0.0233
     15 HG13       -0.7818    2.0961    0.1209 H       1  VAL1        0.0233
     16 HG21       -2.1919   -1.0493    1.5361 H       1  VAL1        0.0233
     17 HG22       -0.8583   -2.1454    1.0575 H       1  VAL1        0.0233
     18 HG23       -2.0032   -1.5252   -0.1966 H       1  VAL1        0.0233
     19 HXT         2.8199    2.0979    0.0944 H       1  VAL1        0.2951
@<TRIPOS>BOND
     1     1     2    1
     2     2     3    1
     3     3     4    1
     4     3     5    1
     5     2     6    1
     6     6     7    2
     7     6     8    1
     8     1     9    1
     9     1    10    1
    10     2    11    1
    11     3    12    1
    12     4    13    1
    13     4    14    1
    14     4    15    1
    15     5    16    1
    16     5    17    1
    17     5    18    1
    18     8    19    1
