@<TRIPOS>MOLECULE
peptide_14_GDNRCCNDRK
 13 12 0 0 0
SMALL
GASTEIGER

@<TRIPOS>ATOM
      1 N          -0.5052    1.5223    0.4324 N.3     1  ALA1       -0.3186
      2 CA         -0.3121    0.0722    0.3698 C.3     1  ALA1        0.1004
      3 CB         -1.3037   -0.5494   -0.6153 C.3     1  ALA1       -0.0395
      4 C           1.1041   -0.2695   -0.0102 C.2     1  ALA1        0.3214
      5 O           1.5824    0.1220   -1.1092 O.2     1  ALA1       -0.2493
      6 OXT         1.8884   -1.0247    0.8561 O.3     1  ALA1       -0.4795
      7 H1          0.1484    1.9158    1.1485 H       1  ALA1        0.1189
      8 H2         -0.2538    1.9500   -0.4891 H       1  ALA1        0.1189
      9 HA         -0.5226   -0.3533    1.3761 H       1  ALA1        0.0571
     10 HB1        -2.3432   -0.3173   -0.3002 H       1  ALA1        0.0250
     11 HB2        -1.1814   -1.6537   -0.6357 H       1  ALA1        0.0250
     12 HB3        -1.1443   -0.1493   -1.6397 H       1  ALA1        0.0250
     13 HXT         2.8429   -1.2652    0.6166 H       1  ALA1        0.2951
@<TRIPOS>BOND
     1     1     2    1
     2     2     3    1
     3     2     4    1
     4     4     5    2
     5     4     6    1
     6     1     7    1
     7     1     8    1
     8     2     9    1
     9     3    10    1
    10     3    11    1
    11     3    12    1
    12     6    13    1
