@<TRIPOS>MOLECULE
peptide_43_NHERHLHQGH
 22 21 0 0 0
SMALL
GASTEIGER

@<TRIPOS>ATOM
      1 N           1.4164   -0.3340    1.4667 N.3     1  LEU1       -0.3184
      2 CA          1.2935   -0.3476    0.0071 C.3     1  LEU1        0.1035
      3 CB          0.0055    0.3796   -0.4417 C.3     1  LEU1       -0.0250
      4 CG         -1.2796   -0.4701   -0.2860 C.3     1  LEU1       -0.0448
      5 CD1        -2.4594    0.2386   -0.9657 C.3     1  LEU1       -0.0626
      6 CD2        -1.6220   -0.7509    1.1848 C.3     1  LEU1       -0.0626
      7 C           2.5043    0.2957   -0.6182 C.2     1  LEU1        0.3217
      8 O           3.3055   -0.3975   -1.3006 O.2     1  LEU1       -0.2493
      9 OXT         2.7483    1.6537   -0.4322 O.3     1  LEU1       -0.4795
     10 H1          2.2652   -0.8828    1.7373 H       1  LEU1        0.1190
     11 H2          1.5582    0.6481    1.7993 H       1  LEU1        0.1190
     12 HA          1.2427   -1.4058   -0.3355 H       1  LEU1        0.0574
     13 HB1        -0.1026    1.3407    0.1090 H       1  LEU1        0.0288
     14 HB2         0.1109    0.6357   -1.5203 H       1  LEU1        0.0288
     15 HG         -1.1329   -1.4443   -0.8032 H       1  LEU1        0.0296
     16 HD11       -2.2421    0.4035   -2.0426 H       1  LEU1        0.0232
     17 HD12       -2.6555    1.2210   -0.4843 H       1  LEU1        0.0232
     18 HD13       -3.3764   -0.3848   -0.8962 H       1  LEU1        0.0232
     19 HD21       -2.6162   -1.2405    1.2642 H       1  LEU1        0.0232
     20 HD22       -1.6420    0.1924    1.7716 H       1  LEU1        0.0232
     21 HD23       -0.8828   -1.4473    1.6302 H       1  LEU1        0.0232
     22 HXT         3.5610    2.0967   -0.8436 H       1  LEU1        0.2951
@<TRIPOS>BOND
     1     1     2    1
     2     2     3    1
     3     3     4    1
     4     4     5    1
     5     4     6    1
     6     2     7    1
     7     7     8    2
     8     7     9    1
     9     1    10    1
    10     1    11    1
    11     2    12    1
    12     3    13    1
    13     3    14    1
    14     4    15    1
    15     5    16    1
    16     5    17    1
    17     5    18    1
    18     6    19    1
    19     6    20    1
    20     6    21    1
    21     9    22    1
