@<TRIPOS>MOLECULE
peptide_21_GEFKMNCDAR
 23 23 0 0 0
SMALL
GASTEIGER

@<TRIPOS>ATOM
      1 N          -2.7515   -1.6029    0.6230 N.3     1  PHE1       -0.3181
      2 CA         -1.5072   -0.8331    0.6744 C.3     1  PHE1        0.1072
      3 CB         -0.7862   -0.8596   -0.6900 C.3     1  PHE1       -0.0020
      4 CG          0.5750   -0.2146   -0.6136 C.ar    1  PHE1       -0.0454
      5 CD1         1.6729   -0.9375   -0.1174 C.ar    1  PHE1       -0.0585
      6 CE1         2.9291   -0.3312   -0.0184 C.ar    1  PHE1       -0.0615
      7 CZ          3.0965    1.0009   -0.4067 C.ar    1  PHE1       -0.0617
      8 CE2         2.0074    1.7298   -0.8922 C.ar    1  PHE1       -0.0615
      9 CD2         0.7496    1.1272   -0.9933 C.ar    1  PHE1       -0.0585
     10 C          -1.8113    0.5758    1.1019 C.2     1  PHE1        0.3220
     11 O          -1.2528    1.0600    2.1226 O.2     1  PHE1       -0.2492
     12 OXT        -2.6975    1.3541    0.3624 O.3     1  PHE1       -0.4795
     13 H1         -2.5165   -2.6072    0.4479 H       1  PHE1        0.1190
     14 H2         -3.3326   -1.2753   -0.1835 H       1  PHE1        0.1190
     15 HA         -0.8437   -1.3025    1.4363 H       1  PHE1        0.0577
     16 HB1        -1.4088   -0.3544   -1.4615 H       1  PHE1        0.0334
     17 HB2        -0.6645   -1.9144   -1.0206 H       1  PHE1        0.0334
     18 HD1         1.5543   -1.9681    0.1937 H       1  PHE1        0.0620
     19 HE1         3.7721   -0.8932    0.3621 H       1  PHE1        0.0618
     20 HZ          4.0691    1.4692   -0.3281 H       1  PHE1        0.0618
     21 HE2         2.1371    2.7629   -1.1877 H       1  PHE1        0.0618
     22 HD2        -0.0874    1.7062   -1.3634 H       1  PHE1        0.0620
     23 HXT        -2.9032    2.3077    0.6349 H       1  PHE1        0.2951
@<TRIPOS>BOND
     1     1     2    1
     2     2     3    1
     3     3     4    1
     4     4     5   ar
     5     5     6   ar
     6     6     7   ar
     7     7     8   ar
     8     8     9   ar
     9     2    10    1
    10    10    11    2
    11    10    12    1
    12     9     4   ar
    13     1    13    1
    14     1    14    1
    15     2    15    1
    16     3    16    1
    17     3    17    1
    18     5    18    1
    19     6    19    1
    20     7    20    1
    21     8    21    1
    22     9    22    1
    23    12    23    1
